# 4MeOPh3_COOH_OPT
# Created by GaussView 6.0.16
#

#
#

@<TRIPOS>MOLECULE
Molecule Name
82 89
SMALL
NO_CHARGES


@<TRIPOS>ATOM
1 C1     3.2881    -0.5447    -0.0696 C
2 C2    -0.6015     2.5063     0.1185 C
3 C3    -3.5463    -1.4184    -0.0883 C
4 C4     0.8507    -3.2140    -0.3839 C
5 C5     1.9096    -3.9906     0.0939 C
6 C6     3.0162    -3.1414     0.3047 C
7 C7     2.6475    -1.8196    -0.0839 C
8 N8     1.3442    -1.9280    -0.5146 N
9 C9     2.5307     0.6392    -0.0678 C
10 C10     2.9792     1.9800    -0.3170 C
11 C11     1.9027     2.8284    -0.2555 C
12 C12     0.7234     2.0587     0.0262 C
13 N13     1.1508     0.7447     0.1150 N
14 C14    -1.7576     1.6711     0.1606 C
15 C15    -3.1199     2.1638     0.2968 C
16 C16    -3.9439     1.0793     0.2276 C
17 C17    -3.0958    -0.0865     0.0703 C
18 N18    -1.7680     0.3143     0.0433 N
19 C19    -2.6418    -2.4854    -0.3289 C
20 C20    -2.7609    -3.9044    -0.3193 C
21 C21    -1.4775    -4.4450    -0.4026 C
22 C22    -0.5614    -3.3664    -0.4618 C
23 N23    -1.3043    -2.2201    -0.4633 N
24 C24    -4.9847    -1.7473     0.0275 C
25 C25    -5.6265    -2.5114    -0.9572 C
26 C26    -6.9771    -2.8465    -0.8622 C
27 C27    -7.0927    -1.6596     1.2443 C
28 C28    -5.7494    -1.3331     1.1354 C
29 C29     4.7620    -0.4686    -0.1110 C
30 C30     5.4855     0.3862     0.7414 C
31 C31     6.8705     0.4322     0.7072 C
32 C32     6.8843    -1.2470    -1.0362 C
33 C33     5.4916    -1.2775    -0.9937 C
34 C34    -0.7980     3.9836     0.1307 C
35 C35    -0.2138     4.7806     1.1319 C
36 C36    -0.3833     6.1580     1.1488 C
37 C37    -1.1500     6.7858     0.1566 C
38 H38     1.8623    -5.0325     0.3764 H
39 H39     0.9139    -1.2267    -1.1029 H
40 H40     3.9974     2.2417    -0.5642 H
41 H41     1.9061     3.8928    -0.4375 H
42 H42     0.5505     0.0291     0.5010 H
43 H43    -3.4063     3.1970     0.4289 H
44 H44    -5.0240     1.0744     0.2611 H
45 H45    -3.6874    -4.4525    -0.2263 H
46 H46    -1.2121    -5.4934    -0.4106 H
47 H47    -1.0073    -1.2442    -0.3196 H
48 C48    -1.7371     6.0126    -0.8522 C
49 C49    -1.5547     4.6290    -0.8554 C
50 H50    -2.3257     6.4723    -1.6373 H
51 H51     0.0620     6.7688     1.9279 H
52 H52     0.3719     4.3045     1.9125 H
53 H53    -2.0040     4.0396    -1.6489 H
54 H54     7.4079    -1.8862    -1.7374 H
55 H55     4.9609    -1.9431    -1.6677 H
56 H56     4.9505     0.9988     1.4598 H
57 H57     7.4264     1.0832     1.3746 H
58 H58    -5.0638    -2.8330    -1.8281 H
59 H59    -7.4360    -3.4276    -1.6532 H
60 H60    -7.6770    -1.3472     2.1041 H
61 H61    -5.2714    -0.7659     1.9275 H
62 C62    -7.7200    -2.4185     0.2445 C
63 C63     7.5839    -0.3869    -0.1809 C
64 C64     4.2363    -3.6331     0.9616 C
65 O65     4.8373    -2.7140     1.7490 O
66 H66     5.6456    -3.1383     2.0952 H
67 O67     4.6501    -4.7748     0.8630 O
68 O68    -1.2629     8.1389     0.2595 O
69 O69    -9.0393    -2.6866     0.4412 O
70 O70     8.9396    -0.2773    -0.1324 O
71 C71    -9.7222    -3.4428    -0.5505 C
72 H72   -10.7499    -3.5422    -0.1956 H
73 H73    -9.7232    -2.9274    -1.5195 H
74 H74    -9.2835    -4.4418    -0.6694 H
75 C75    -2.0272     8.8213    -0.7252 C
76 H76    -1.9954     9.8776    -0.4510 H
77 H77    -1.5977     8.6965    -1.7278 H
78 H78    -3.0714     8.4830    -0.7325 H
79 C79     9.7062    -1.0973    -1.0051 C
80 H80    10.7517    -0.8638    -0.7943 H
81 H81     9.5291    -2.1636    -0.8145 H
82 H82     9.4922    -0.8757    -2.0585 H
@<TRIPOS>BOND
1 1 7 Ar
2 1 9 Ar
3 1 29 1
4 2 12 Ar
5 2 14 Ar
6 2 34 1
7 3 17 Ar
8 3 19 Ar
9 3 24 1
10 4 5 Ar
11 4 8 1
12 4 22 Ar
13 5 6 Ar
14 5 38 1
15 6 7 Ar
16 6 64 1
17 7 8 Ar
18 8 39 1
19 9 10 Ar
20 9 13 1
21 10 11 2
22 10 40 1
23 11 12 Ar
24 11 41 1
25 12 13 1
26 13 42 1
27 14 15 1
28 14 18 Ar
29 15 16 2
30 15 43 1
31 16 17 1
32 16 44 1
33 17 18 1
34 19 20 Ar
35 19 23 Ar
36 20 21 Ar
37 20 45 1
38 21 22 Ar
39 21 46 1
40 22 23 Ar
41 23 47 1
42 24 25 Ar
43 24 28 Ar
44 25 26 Ar
45 25 58 1
46 26 59 1
47 26 62 Ar
48 27 28 Ar
49 27 60 1
50 27 62 Ar
51 28 61 1
52 29 30 Ar
53 29 33 Ar
54 30 31 Ar
55 30 56 1
56 31 57 1
57 31 63 Ar
58 32 33 Ar
59 32 54 1
60 32 63 Ar
61 33 55 1
62 34 35 Ar
63 34 49 Ar
64 35 36 Ar
65 35 52 1
66 36 37 Ar
67 36 51 1
68 37 48 Ar
69 37 68 1
70 48 49 Ar
71 48 50 1
72 49 53 1
73 62 69 1
74 63 70 1
75 64 65 1
76 64 67 2
77 65 66 1
78 68 75 1
79 69 71 1
80 70 79 1
81 71 72 1
82 71 73 1
83 71 74 1
84 75 76 1
85 75 77 1
86 75 78 1
87 79 80 1
88 79 81 1
89 79 82 1
