# 15_H3
# Created by GaussView 6.0.16
#

#
#

@<TRIPOS>MOLECULE
Molecule Name
76 83
SMALL
NO_CHARGES


@<TRIPOS>ATOM
1 C1    -3.4710    -1.0107    -0.0948 C
2 C2     0.0248     2.4703    -0.0808 C
3 C3     3.4249    -1.0454    -0.0320 C
4 C4    -0.7210    -3.3608    -0.1265 C
5 C5    -1.7295    -4.2293     0.3449 C
6 C6    -2.9253    -3.5153     0.3822 C
7 C7    -2.6786    -2.1922    -0.0793 C
8 N8    -1.3367    -2.1500    -0.3906 N
9 C9    -2.8825     0.2800    -0.1426 C
10 C10    -3.4841     1.5409    -0.4528 C
11 C11    -2.5064     2.5113    -0.4449 C
12 C12    -1.2530     1.8881    -0.1511 C
13 N13    -1.5286     0.5469     0.0182 N
14 C14     1.2754     1.8130    -0.0063 C
15 C15     2.5595     2.4920     0.0763 C
16 C16     3.5159     1.5211     0.0845 C
17 C17     2.8231     0.2448    -0.0105 C
18 N18     1.4639     0.4631    -0.0369 N
19 C19     2.6531    -2.2317    -0.0851 C
20 C20     2.9424    -3.6372    -0.0785 C
21 C21     1.7379    -4.3230    -0.0880 C
22 C22     0.6911    -3.3571    -0.1313 C
23 N23     1.2952    -2.1329    -0.1485 N
24 H24    -1.5709    -5.2372     0.7023 H
25 H25    -3.8630    -3.8742     0.7805 H
26 H26    -4.5231     1.6851    -0.7106 H
27 H27    -2.6368     3.5586    -0.6787 H
28 H28     2.7144     3.5619     0.1266 H
29 H29     4.5840     1.6665     0.1565 H
30 H30     3.9271    -4.0808    -0.0753 H
31 H31     1.6004    -5.3951    -0.0948 H
32 H32    -0.8511    -0.0889     0.4144 H
33 H33    -0.9592    -1.4866    -1.0563 H
34 H34     0.8823    -1.1936    -0.0859 H
35 C35    -4.9278    -1.1488    -0.0428 C
36 C36    -5.7512    -0.2618     0.6841 C
37 C37    -5.5800    -2.2067    -0.7123 C
38 C38    -7.1179    -0.4331     0.7069 C
39 H39    -5.3251     0.5489     1.2609 H
40 C40    -6.9499    -2.3357    -0.6563 C
41 H41    -5.0195    -2.9166    -1.3070 H
42 N42    -7.7070    -1.4546     0.0396 N
43 H43    -7.7822     0.2200     1.2597 H
44 H44    -7.4827    -3.1286    -1.1657 H
45 C45     4.8922    -1.1845    -0.0003 C
46 C46     5.7268    -0.4719    -0.8813 C
47 C47     5.5213    -2.0685     0.8987 C
48 C48     7.0947    -0.6496    -0.8467 C
49 H49     5.3098     0.1990    -1.6213 H
50 C50     6.8925    -2.2082     0.8965 C
51 H51     4.9425    -2.6258     1.6245 H
52 N52     7.6642    -1.5060     0.0326 N
53 H53     7.7674    -0.1341    -1.5216 H
54 H54     7.4141    -2.8683     1.5791 H
55 C55     0.0610     3.9592    -0.1963 C
56 C56     0.1453     4.5939    -1.4305 C
57 N57     0.0163     4.7263     0.9356 N
58 C58     0.1789     5.9848    -1.5156 C
59 H59     0.1850     3.9756    -2.3192 H
60 C60     0.0490     6.0785     0.8701 C
61 C61     0.1285     6.7360    -0.3434 C
62 H62     0.2455     6.4729    -2.4821 H
63 H63     0.0112     6.6060     1.8138 H
64 H64     0.1535     7.8191    -0.3564 H
65 C65    -0.0562     4.0780     2.2658 C
66 H66    -0.9675     3.4827     2.3259 H
67 H67     0.8171     3.4400     2.3990 H
68 H68    -0.0693     4.8514     3.0323 H
69 C69     9.1280    -1.7184     0.0356 C
70 H70     9.3537    -2.6602    -0.4702 H
71 H71     9.6112    -0.8927    -0.4849 H
72 H72     9.4785    -1.7532     1.0673 H
73 C73    -9.1720    -1.6317     0.1107 C
74 H74    -9.5114    -2.1544    -0.7834 H
75 H75    -9.4212    -2.2149     1.0008 H
76 H76    -9.6443    -0.6512     0.1635 H
@<TRIPOS>BOND
1 1 7 Ar
2 1 9 Ar
3 1 35 1
4 2 12 Ar
5 2 14 Ar
6 2 55 1
7 3 17 Ar
8 3 19 Ar
9 3 45 1
10 4 5 Ar
11 4 8 1
12 4 22 Ar
13 5 6 Ar
14 5 24 1
15 6 7 Ar
16 6 25 1
17 7 8 Ar
18 8 33 1
19 9 10 Ar
20 9 13 1
21 10 11 2
22 10 26 1
23 11 12 Ar
24 11 27 1
25 12 13 Ar
26 13 32 1
27 14 15 1
28 14 18 Ar
29 15 16 2
30 15 28 1
31 16 17 1
32 16 29 1
33 17 18 Ar
34 19 20 Ar
35 19 23 Ar
36 20 21 Ar
37 20 30 1
38 21 22 Ar
39 21 31 1
40 22 23 Ar
41 23 34 1
42 35 36 Ar
43 35 37 Ar
44 36 38 2
45 36 39 1
46 37 40 2
47 37 41 1
48 38 42 Ar
49 38 43 1
50 40 42 Ar
51 40 44 1
52 42 73 1
53 45 46 Ar
54 45 47 Ar
55 46 48 2
56 46 49 1
57 47 50 2
58 47 51 1
59 48 52 Ar
60 48 53 1
61 50 52 Ar
62 50 54 1
63 52 69 1
64 55 56 Ar
65 55 57 Ar
66 56 58 Ar
67 56 59 1
68 57 60 Ar
69 57 65 1
70 58 61 Ar
71 58 62 1
72 60 61 2
73 60 63 1
74 61 64 1
75 65 66 1
76 65 67 1
77 65 68 1
78 69 70 1
79 69 71 1
80 69 72 1
81 73 74 1
82 73 75 1
83 73 76 1
