# F20P_4
# Created by GaussView 6.0.16
#

#
#

@<TRIPOS>MOLECULE
Molecule Name
70 79
SMALL
NO_CHARGES


@<TRIPOS>ATOM
1 C1     3.6034    -1.3662     0.0134 C
2 C2     0.0469     2.0132    -0.0173 C
3 C3    -3.0871    -1.7640     0.0059 C
4 C4     1.0919    -3.8807     0.0758 C
5 C5     2.2155    -4.7359     0.0719 C
6 C6     3.3343    -3.9216     0.0402 C
7 C7     2.8941    -2.5662     0.0307 C
8 N8     1.5202    -2.5722     0.0504 N
9 C9     2.9233    -0.1525     0.0116 C
10 C10     3.5342     1.1363     0.0370 C
11 C11     2.5475     2.0770     0.0375 C
12 C12     1.2927     1.3949     0.0098 C
13 N13     1.5265     0.0263     0.0000 N
14 C14    -1.1460     1.2933    -0.0564 C
15 C15    -2.4963     1.7849    -0.1372 C
16 C16    -3.3349     0.7038    -0.1306 C
17 C17    -2.5561    -0.4744    -0.0432 C
18 N18    -1.2016    -0.1029    -0.0150 N
19 C19    -2.2457    -2.8683     0.0556 C
20 C20    -2.5241    -4.2661     0.1175 C
21 C21    -1.3180    -4.9417     0.1311 C
22 C22    -0.3015    -3.9605     0.0809 C
23 N23    -0.8804    -2.7129     0.0397 N
24 C24    -4.5559    -1.9658    -0.0019 C
25 C25    -5.1849    -2.6626    -1.0393 C
26 C26    -6.5584    -2.8803    -1.0543 C
27 C27    -7.3437    -2.3891    -0.0158 C
28 C28    -6.7497    -1.6881     1.0294 C
29 C29    -5.3730    -1.4920     1.0303 C
30 C30     5.0861    -1.3947     0.0017 C
31 C31     5.8105    -1.9708     1.0509 C
32 C32     7.1998    -2.0324     1.0417 C
33 C33     7.9046    -1.5014    -0.0340 C
34 C34     7.2148    -0.9184    -1.0925 C
35 C35     5.8250    -0.8772    -1.0677 C
36 C36     0.0684     3.5016     0.0343 C
37 C37     0.0306     4.1718     1.2574 C
38 C38     0.1127     5.5568     1.3372 C
39 C39     0.2445     6.3024     0.1697 C
40 C40     0.2926     5.6610    -1.0643 C
41 C41     0.2100     4.2742    -1.1179 C
42 H42     4.6004     1.3037     0.0628 H
43 H43     2.6588     3.1505     0.0543 H
44 H44    -3.5150    -4.6957     0.1510 H
45 P45     0.2411    -1.2740     0.0177 P
46 F46     0.2376    -1.2804    -1.6232 F
47 F47     0.2177    -1.2172     1.6575 F
48 F48     9.2386    -1.5497    -0.0499 F
49 F49     7.8896    -0.4140    -2.1316 F
50 F50     5.1961    -0.3194    -2.1112 F
51 F51     7.8608    -2.5874     2.0638 F
52 F52     5.1678    -2.4837     2.1092 F
53 F53    -4.4628    -3.1394    -2.0625 F
54 F54    -7.1277    -3.5491    -2.0632 F
55 F55    -8.6631    -2.5902    -0.0218 F
56 F56    -7.5017    -1.2217     2.0322 F
57 F57    -4.8351    -0.8233     2.0593 F
58 F58     0.4201     6.3797    -2.1865 F
59 F59     0.2589     3.6829    -2.3175 F
60 F60     0.3247     7.6341     0.2344 F
61 F61     0.0680     6.1755     2.5236 F
62 F62    -0.0973     3.4765     2.3941 F
63 H63    -1.1588    -6.0099     0.1730 H
64 H64     2.1849    -5.8163     0.0867 H
65 H65     4.3682    -4.2350     0.0231 H
66 H66    -4.4104     0.7280    -0.1987 H
67 C67    -3.0224     3.1766    -0.2755 C
68 F68    -4.3688     3.1580    -0.3937 F
69 F69    -2.5478     3.8073    -1.3762 F
70 F70    -2.7436     3.9680     0.7870 F
@<TRIPOS>BOND
1 1 7 Ar
2 1 9 Ar
3 1 30 1
4 2 12 Ar
5 2 14 Ar
6 2 36 1
7 3 17 Ar
8 3 19 Ar
9 3 24 1
10 4 5 Ar
11 4 8 Ar
12 4 22 Ar
13 5 6 2
14 5 64 1
15 6 7 Ar
16 6 65 1
17 7 8 Ar
18 8 45 1
19 9 10 Ar
20 9 13 1
21 10 11 2
22 10 42 1
23 11 12 Ar
24 11 43 1
25 12 13 1
26 13 45 1
27 14 15 Ar
28 14 18 1
29 15 16 2
30 15 67 1
31 16 17 Ar
32 16 66 1
33 17 18 1
34 19 20 Ar
35 19 23 Ar
36 20 21 2
37 20 44 1
38 21 22 Ar
39 21 63 1
40 22 23 Ar
41 23 45 1
42 24 25 Ar
43 24 29 Ar
44 25 26 Ar
45 25 53 1
46 26 27 Ar
47 26 54 1
48 27 28 Ar
49 27 55 1
50 28 29 Ar
51 28 56 1
52 29 57 1
53 30 31 Ar
54 30 35 Ar
55 31 32 Ar
56 31 52 1
57 32 33 Ar
58 32 51 1
59 33 34 Ar
60 33 48 1
61 34 35 Ar
62 34 49 1
63 35 50 1
64 36 37 Ar
65 36 41 Ar
66 37 38 Ar
67 37 62 1
68 38 39 Ar
69 38 61 1
70 39 40 Ar
71 39 60 1
72 40 41 Ar
73 40 58 1
74 41 59 1
75 45 46 1
76 45 47 1
77 67 68 1
78 67 69 1
79 67 70 1
