# Ga_COOCH3
# Created by GaussView 6.0.16
#

#
#

@<TRIPOS>MOLECULE
Molecule Name
80 90
SMALL
NO_CHARGES


@<TRIPOS>ATOM
1 C1    -3.1634    -1.9554    -0.0965 C
2 C2     0.1730     1.6915     0.0136 C
3 C3     3.5842    -1.8839     0.1138 C
4 C4    -0.4783    -4.3385    -0.0225 C
5 C5    -1.5565    -5.2675    -0.0123 C
6 C6    -2.7380    -4.5334    -0.0456 C
7 C7    -2.3900    -3.1410    -0.0876 C
8 N8    -1.0218    -3.0790    -0.0760 N
9 C9    -2.6008    -0.6562    -0.0658 C
10 C10    -3.3016     0.5941    -0.1574 C
11 C11    -2.3836     1.6153    -0.1249 C
12 C12    -1.0768     1.0315    -0.0159 C
13 N13    -1.2378    -0.3468     0.0125 N
14 C14     1.4361     1.0587     0.0398 C
15 C15     2.7309     1.6698     0.1440 C
16 C16     3.6705     0.6683     0.1717 C
17 C17     2.9956    -0.5966     0.0828 C
18 N18     1.6261    -0.3161     0.0098 N
19 C19     2.8360    -3.0863     0.1100 C
20 C20     3.2127    -4.4712     0.0686 C
21 C21     2.0465    -5.2299     0.0373 C
22 C22     0.9495    -4.3236     0.0479 C
23 N23     1.4671    -3.0529     0.1004 N
24 C24     5.0646    -1.9947     0.1563 C
25 C25     5.6915    -2.7494     1.1638 C
26 C26     7.0730    -2.8902     1.1928 C
27 C27     7.8725    -2.2672     0.2252 C
28 C28     7.2547    -1.5163    -0.7851 C
29 C29     5.8698    -1.3850    -0.8195 C
30 C30     0.1538     3.1807     0.0166 C
31 C31     0.7769     3.9090    -1.0055 C
32 C32     0.7510     5.3037    -1.0002 C
33 C33     0.0980     6.0011     0.0152 C
34 C34    -0.5255     5.2799     1.0320 C
35 C35    -0.4952     3.8850     1.0390 C
36 C36    -4.6418    -2.0925    -0.1493 C
37 C37    -5.4639    -1.4935     0.8191 C
38 C38    -6.8481    -1.6235     0.7602 C
39 C39    -7.4452    -2.3759    -0.2599 C
40 C40    -6.6300    -3.0063    -1.2090 C
41 C41    -5.2490    -2.8529    -1.1639 C
42 Ga42     0.2073    -1.5985     0.0130 Ga
43 H43    -1.4677    -6.3450     0.0313 H
44 H44    -3.7426    -4.9320    -0.0293 H
45 H45    -4.3722     0.6946    -0.2587 H
46 H46    -2.5912     2.6733    -0.1925 H
47 H47     2.9164     2.7319     0.2127 H
48 H48     4.7391     0.7920     0.2700 H
49 H49     4.2250    -4.8498     0.0522 H
50 H50     1.9802    -6.3090    -0.0051 H
51 H51     7.5550    -3.4761     1.9676 H
52 H52     7.8341    -1.0657    -1.5875 H
53 H53     5.4020    -0.8291    -1.6250 H
54 H54     5.0839    -3.2175     1.9312 H
55 H55    -5.0099    -0.9380     1.6331 H
56 H56    -7.4587    -1.1688     1.5330 H
57 H57    -7.0909    -3.6076    -1.9857 H
58 H58    -4.6284    -3.3176    -1.9230 H
59 C59     9.3500    -2.4773     0.3069 C
60 C60    -8.9186    -2.6272    -0.3175 C
61 O61    10.1382    -1.6142    -0.3815 O
62 O62     9.8610    -3.3690     0.9481 O
63 C63     1.4780     6.0538    -2.0820 C
64 C64    -1.2902     5.9973     2.1098 C
65 F65    -2.6192     6.0099     1.8469 F
66 F66    -1.1398     5.3995     3.3125 F
67 F67    -0.9017     7.2828     2.2434 F
68 F68     2.7985     6.1707    -1.8039 F
69 F69     1.3875     5.4246    -3.2747 F
70 F70     0.9977     7.3047    -2.2452 F
71 H71     0.0741     7.0838     0.0130 H
72 H72    -0.9710     3.3373     1.8450 H
73 H73     1.2704     3.3800    -1.8131 H
74 O74    -9.7759    -1.6129    -0.0494 O
75 O75    -9.3736    -3.7227    -0.5694 O
76 C76    -9.3970    -0.2350    -0.1908 C
77 H77    -9.1342     0.1959     0.7799 H
78 H78    -8.5639    -0.1090    -0.8863 H
79 H79   -10.2777     0.2797    -0.5823 H
80 H80     9.6099    -0.8784    -0.7346 H
@<TRIPOS>BOND
1 1 7 Ar
2 1 9 Ar
3 1 36 1
4 2 12 Ar
5 2 14 Ar
6 2 30 1
7 3 17 Ar
8 3 19 Ar
9 3 24 1
10 4 5 Ar
11 4 8 Ar
12 4 22 Ar
13 5 6 Ar
14 5 43 1
15 6 7 Ar
16 6 44 1
17 7 8 Ar
18 8 42 1
19 9 10 Ar
20 9 13 1
21 10 11 2
22 10 45 1
23 11 12 Ar
24 11 46 1
25 12 13 1
26 13 42 1
27 14 15 Ar
28 14 18 1
29 15 16 2
30 15 47 1
31 16 17 Ar
32 16 48 1
33 17 18 1
34 18 42 1
35 19 20 Ar
36 19 23 Ar
37 20 21 Ar
38 20 49 1
39 21 22 Ar
40 21 50 1
41 22 23 Ar
42 23 42 1
43 24 25 Ar
44 24 29 Ar
45 25 26 Ar
46 25 54 1
47 26 27 Ar
48 26 51 1
49 27 28 Ar
50 27 59 1
51 28 29 Ar
52 28 52 1
53 29 53 1
54 30 31 Ar
55 30 35 Ar
56 31 32 Ar
57 31 73 1
58 32 33 Ar
59 32 63 1
60 33 34 Ar
61 33 71 1
62 34 35 Ar
63 34 64 1
64 35 72 1
65 36 37 Ar
66 36 41 Ar
67 37 38 Ar
68 37 55 1
69 38 39 Ar
70 38 56 1
71 39 40 Ar
72 39 60 1
73 40 41 Ar
74 40 57 1
75 41 58 1
76 59 61 1
77 59 62 2
78 60 74 1
79 60 75 2
80 61 80 1
81 63 68 1
82 63 69 1
83 63 70 1
84 64 65 1
85 64 66 1
86 64 67 1
87 74 76 1
88 76 77 1
89 76 78 1
90 76 79 1
