# Ga_COOCH3_CF3
# Created by GaussView 6.0.16
#

#
#

@<TRIPOS>MOLECULE
Molecule Name
83 93
SMALL
NO_CHARGES


@<TRIPOS>ATOM
1 C1     3.3743    -1.9278     0.0961 C
2 C2     0.0000     1.6839    -0.0000 C
3 C3    -3.3746    -1.9275    -0.0960 C
4 C4     0.7139    -4.3392     0.0333 C
5 C5     1.8016    -5.2568     0.0200 C
6 C6     2.9757    -4.5103     0.0491 C
7 C7     2.6134    -3.1218     0.0914 C
8 N8     1.2446    -3.0741     0.0846 N
9 C9     2.7984    -0.6347     0.0671 C
10 C10     3.4865     0.6229     0.1554 C
11 C11     2.5578     1.6345     0.1276 C
12 C12     1.2565     1.0373     0.0244 C
13 N13     1.4318    -0.3393    -0.0051 N
14 C14    -1.2565     1.0374    -0.0245 C
15 C15    -2.5578     1.6348    -0.1277 C
16 C16    -3.4866     0.6233    -0.1554 C
17 C17    -2.7985    -0.6344    -0.0670 C
18 N18    -1.4319    -0.3392     0.0051 N
19 C19    -2.6138    -3.1215    -0.0912 C
20 C20    -2.9762    -4.5100    -0.0489 C
21 C21    -1.8022    -5.2566    -0.0197 C
22 C22    -0.7145    -4.3392    -0.0330 C
23 N23    -1.2450    -3.0740    -0.0844 N
24 C24    -4.8546    -2.0488    -0.1409 C
25 C25    -5.4756    -2.8016    -1.1529 C
26 C26    -6.8583    -2.9404    -1.1903 C
27 C27    -7.6615    -2.3029    -0.2357 C
28 C28    -7.0507    -1.5579     0.7818 C
29 C29    -5.6649    -1.4424     0.8328 C
30 C30     0.0001     3.1731    -0.0000 C
31 C31    -0.6342     3.8898     1.0232 C
32 C32    -0.6364     5.2849     1.0171 C
33 C33     0.0004     5.9944     0.0000 C
34 C34     0.6372     5.2848    -1.0171 C
35 C35     0.6346     3.8897    -1.0232 C
36 C36     4.8543    -2.0493     0.1410 C
37 C37     5.6646    -1.4430    -0.8329 C
38 C38     7.0504    -1.5586    -0.7819 C
39 C39     7.6612    -2.3035     0.2356 C
40 C40     6.8580    -2.9409     1.1903 C
41 C41     5.4753    -2.8021     1.1530 C
42 Ga42    -0.0001    -1.6066     0.0000 Ga
43 H43     1.7240    -6.3352    -0.0228 H
44 H44     3.9844    -4.8985     0.0300 H
45 H45     4.5565     0.7347     0.2518 H
46 H46     2.7548     2.6946     0.1951 H
47 H47    -2.7546     2.6949    -0.1951 H
48 H48    -4.5566     0.7351    -0.2517 H
49 H49    -3.9850    -4.8982    -0.0297 H
50 H50    -1.7247    -6.3350     0.0231 H
51 H51    -7.3300    -3.5359    -1.9651 H
52 H52    -7.6520    -1.0981     1.5588 H
53 H53    -5.2003    -0.8927     1.6446 H
54 H54    -4.8639    -3.2718    -1.9159 H
55 H55     5.1999    -0.8933    -1.6447 H
56 H56     7.6517    -1.0988    -1.5590 H
57 H57     7.3297    -3.5363     1.9651 H
58 H58     4.8637    -3.2722     1.9160 H
59 C59    -9.1376    -2.5391    -0.2844 C
60 C60     9.1373    -2.5397     0.2843 C
61 O61    -9.9825    -1.5176    -0.0033 O
62 O62    -9.6058    -3.6283    -0.5394 O
63 C63    -9.5932    -0.1429    -0.1469 C
64 H64    -9.3210     0.2856     0.8223 H
65 H65    -8.7634    -0.0236    -0.8475 H
66 H66   -10.4721     0.3791    -0.5329 H
67 C67    -1.3810     6.0185     2.0980 C
68 C68     1.3820     6.0183    -2.0980 C
69 F69     2.7086     6.0804    -1.8303 F
70 F70     1.2575     5.4052    -3.2960 F
71 F71     0.9492     7.2883    -2.2446 F
72 F72    -2.7076     6.0810     1.8304 F
73 F73    -1.2566     5.4054     3.2960 F
74 F74    -0.9479     7.2885     2.2447 F
75 H75     0.0006     7.0773     0.0000 H
76 H76     1.1178     3.3512    -1.8309 H
77 H77    -1.1175     3.3514     1.8309 H
78 O78     9.9821    -1.5184     0.0026 O
79 O79     9.6055    -3.6288     0.5398 O
80 C80     9.5932    -0.1436     0.1460 C
81 H81     9.3213     0.2849    -0.8232 H
82 H82     8.7631    -0.0240     0.8464 H
83 H83    10.4720     0.3782     0.5324 H
@<TRIPOS>BOND
1 1 7 Ar
2 1 9 Ar
3 1 36 1
4 2 12 Ar
5 2 14 Ar
6 2 30 1
7 3 17 Ar
8 3 19 Ar
9 3 24 1
10 4 5 Ar
11 4 8 Ar
12 4 22 Ar
13 5 6 Ar
14 5 43 1
15 6 7 Ar
16 6 44 1
17 7 8 Ar
18 8 42 1
19 9 10 Ar
20 9 13 1
21 10 11 2
22 10 45 1
23 11 12 Ar
24 11 46 1
25 12 13 1
26 13 42 1
27 14 15 Ar
28 14 18 1
29 15 16 2
30 15 47 1
31 16 17 Ar
32 16 48 1
33 17 18 1
34 18 42 1
35 19 20 Ar
36 19 23 Ar
37 20 21 Ar
38 20 49 1
39 21 22 Ar
40 21 50 1
41 22 23 Ar
42 23 42 1
43 24 25 Ar
44 24 29 Ar
45 25 26 Ar
46 25 54 1
47 26 27 Ar
48 26 51 1
49 27 28 Ar
50 27 59 1
51 28 29 Ar
52 28 52 1
53 29 53 1
54 30 31 Ar
55 30 35 Ar
56 31 32 Ar
57 31 77 1
58 32 33 Ar
59 32 67 1
60 33 34 Ar
61 33 75 1
62 34 35 Ar
63 34 68 1
64 35 76 1
65 36 37 Ar
66 36 41 Ar
67 37 38 Ar
68 37 55 1
69 38 39 Ar
70 38 56 1
71 39 40 Ar
72 39 60 1
73 40 41 Ar
74 40 57 1
75 41 58 1
76 59 61 1
77 59 62 2
78 60 78 1
79 60 79 2
80 61 63 1
81 63 64 1
82 63 65 1
83 63 66 1
84 67 72 1
85 67 73 1
86 67 74 1
87 68 69 1
88 68 70 1
89 68 71 1
90 78 80 1
91 80 81 1
92 80 82 1
93 80 83 1
