# Ga_F10_COOCH3_OPT
# Created by GaussView 6.0.16
#

#
#

@<TRIPOS>MOLECULE
Molecule Name
71 81
SMALL
NO_CHARGES


@<TRIPOS>ATOM
1 C1     3.4137    -1.3254     0.0202 C
2 C2    -0.0379     2.2049     0.0618 C
3 C3    -3.3090    -1.4921    -0.0319 C
4 C4     0.8256    -3.8061    -0.0316 C
5 C5     1.9399    -4.6944    -0.0629 C
6 C6     3.0922    -3.9170    -0.0431 C
7 C7     2.6917    -2.5389     0.0044 C
8 N8     1.3244    -2.5271     0.0141 N
9 C9     2.8122    -0.0458     0.0441 C
10 C10     3.4768     1.2266     0.0641 C
11 C11     2.5242     2.2156     0.0700 C
12 C12     1.2330     1.5876     0.0683 C
13 N13     1.4402     0.2141     0.0494 N
14 C14    -1.2766     1.5253     0.0316 C
15 C15    -2.5977     2.0881     0.0489 C
16 C16    -3.4996     1.0531     0.0149 C
17 C17    -2.7721    -0.1843    -0.0084 C
18 N18    -1.4149     0.1435     0.0003 N
19 C19    -2.5278    -2.6682    -0.0555 C
20 C20    -2.8596    -4.0651    -0.0611 C
21 C21    -1.6700    -4.7843    -0.0655 C
22 C22    -0.6011    -3.8415    -0.0584 C
23 N23    -1.1628    -2.5880    -0.0582 N
24 C24    -4.7870    -1.6445    -0.0148 C
25 C25    -5.4709    -2.2500    -1.0742 C
26 C26    -6.8517    -2.4191    -1.0624 C
27 C27    -7.5905    -1.9708     0.0279 C
28 C28    -6.9417    -1.3619     1.0979 C
29 C29    -5.5590    -1.2137     1.0695 C
30 F30    -4.7978    -2.6843    -2.1496 F
31 F31    -7.4733    -2.9995    -2.0964 F
32 F32    -8.9176    -2.1243     0.0479 F
33 F33    -7.6490    -0.9358     2.1516 F
34 F34    -4.9702    -0.6389     2.1285 F
35 C35     4.8975    -1.4052    -0.0017 C
36 C36     5.6093    -2.0121     1.0385 C
37 C37     6.9962    -2.1184     1.0216 C
38 C38     7.7125    -1.6025    -0.0538 C
39 C39     7.0358    -0.9901    -1.1041 C
40 C40     5.6479    -0.9050    -1.0712 C
41 F41     4.9572    -2.5097     2.0992 F
42 F42     7.6453    -2.7029     2.0362 F
43 F43     9.0453    -1.6942    -0.0778 F
44 F44     7.7220    -0.5000    -2.1439 F
45 F45     5.0328    -0.3229    -2.1111 F
46 C46    -0.0770     3.6951     0.0920 C
47 C47     0.4641     4.4051     1.1766 C
48 C48     0.4231     5.7943     1.2060 C
49 C49    -0.1644     6.5063     0.1525 C
50 C50    -0.7074     5.8072    -0.9337 C
51 C51    -0.6601     4.4170    -0.9618 C
52 H52     1.8911    -5.7746    -0.1020 H
53 H53     4.1109    -4.2793    -0.0656 H
54 H54     4.5483     1.3670     0.0758 H
55 H55     2.6975     3.2816     0.0709 H
56 H56    -2.8228     3.1437     0.0869 H
57 H57    -4.5769     1.1386     0.0052 H
58 H58    -3.8595    -4.4772    -0.0568 H
59 H59    -1.5677    -5.8615    -0.0673 H
60 H60     0.8351     6.3447     2.0449 H
61 H61    -1.1559     6.3531    -1.7556 H
62 H62    -1.0691     3.8791    -1.8111 H
63 H63     0.9066     3.8578     2.0029 H
64 Ga64     0.0443    -1.0890     0.0041 Ga
65 C65    -0.1838     7.9914     0.2354 C
66 O66     0.3055     8.6365     1.1445 O
67 O67    -0.8105     8.5569    -0.8167 O
68 C68    -0.8640     9.9918    -0.8052 C
69 H69     0.1440    10.4150    -0.8244 H
70 H70    -1.4098    10.2722    -1.7069 H
71 H71    -1.3879    10.3517     0.0844 H
@<TRIPOS>BOND
1 1 7 Ar
2 1 9 Ar
3 1 35 1
4 2 12 Ar
5 2 14 Ar
6 2 46 1
7 3 17 Ar
8 3 19 Ar
9 3 24 1
10 4 5 Ar
11 4 8 Ar
12 4 22 Ar
13 5 6 Ar
14 5 52 1
15 6 7 Ar
16 6 53 1
17 7 8 Ar
18 8 64 1
19 9 10 Ar
20 9 13 1
21 10 11 2
22 10 54 1
23 11 12 Ar
24 11 55 1
25 12 13 1
26 13 64 1
27 14 15 Ar
28 14 18 1
29 15 16 2
30 15 56 1
31 16 17 Ar
32 16 57 1
33 17 18 1
34 18 64 1
35 19 20 Ar
36 19 23 Ar
37 20 21 Ar
38 20 58 1
39 21 22 Ar
40 21 59 1
41 22 23 Ar
42 23 64 1
43 24 25 Ar
44 24 29 Ar
45 25 26 Ar
46 25 30 1
47 26 27 Ar
48 26 31 1
49 27 28 Ar
50 27 32 1
51 28 29 Ar
52 28 33 1
53 29 34 1
54 35 36 Ar
55 35 40 Ar
56 36 37 Ar
57 36 41 1
58 37 38 Ar
59 37 42 1
60 38 39 Ar
61 38 43 1
62 39 40 Ar
63 39 44 1
64 40 45 1
65 46 47 Ar
66 46 51 Ar
67 47 48 Ar
68 47 63 1
69 48 49 Ar
70 48 60 1
71 49 50 Ar
72 49 65 1
73 50 51 Ar
74 50 61 1
75 51 62 1
76 65 66 2
77 65 67 1
78 67 68 1
79 68 69 1
80 68 70 1
81 68 71 1
