# Ga_F10_O4_OPT
# Created by GaussView 6.0.16
#

#
#

@<TRIPOS>MOLECULE
Molecule Name
88 100
SMALL
NO_CHARGES


@<TRIPOS>ATOM
1 C1     1.2302    -3.0307    -0.1606 C
2 C2    -0.1702     1.7026    -0.3080 C
3 C3    -4.7839    -0.0244    -0.0166 C
4 C4    -2.2125    -4.0053     0.0806 C
5 C5    -1.6442    -5.3121     0.1043 C
6 C6    -0.2635    -5.1675     0.0231 C
7 C7     0.0277    -3.7633    -0.0499 C
8 N8    -1.1736    -3.1106    -0.0074 N
9 C9     1.2949    -1.6200    -0.2374 C
10 C10     2.4736    -0.8076    -0.3532 C
11 C11     2.0911     0.5102    -0.3994 C
12 C12     0.6598     0.5599    -0.3010 C
13 N13     0.2048    -0.7493    -0.2113 N
14 C14    -1.5799     1.6818    -0.2512 C
15 C15    -2.4793     2.7998    -0.2499 C
16 C16    -3.7617     2.3120    -0.1820 C
17 C17    -3.6998     0.8781    -0.1200 C
18 N18    -2.3498     0.5282    -0.1698 N
19 C19    -4.6429    -1.4280     0.0493 C
20 C20    -5.5870    -2.5028     0.1732 C
21 C21    -4.8727    -3.6955     0.2021 C
22 C22    -3.4894    -3.3671     0.1008 C
23 N23    -3.4010    -1.9993     0.0102 N
24 C24    -6.1614     0.5306     0.0288 C
25 C25    -7.0958     0.2380    -0.9703 C
26 C26    -8.3971     0.7283    -0.9331 C
27 C27    -8.7947     1.5433     0.1221 C
28 C28    -7.8898     1.8562     1.1316 C
29 C29    -6.5968     1.3458     1.0790 C
30 F30    -6.7489    -0.5328    -2.0116 F
31 F31    -9.2642     0.4292    -1.9088 F
32 F32   -10.0411     2.0239     0.1658 F
33 F33    -8.2729     2.6337     2.1523 F
34 F34    -5.7610     1.6577     2.0801 F
35 C35     2.5075    -3.7891    -0.1964 C
36 C36     2.9177    -4.5740     0.8869 C
37 C37     4.1120    -5.2876     0.8736 C
38 C38     4.9390    -5.2240    -0.2433 C
39 C39     4.5608    -4.4541    -1.3388 C
40 C40     3.3560    -3.7595    -1.3085 C
41 F41     2.1591    -4.6485     1.9898 F
42 F42     4.4775    -6.0220     1.9321 F
43 F43     6.0937    -5.8974    -0.2631 F
44 F44     5.3524    -4.3957    -2.4179 F
45 F45     3.0220    -3.0443    -2.3926 F
46 C46     0.5138     3.0252    -0.3783 C
47 C47     1.3656     3.4368     0.6544 C
48 C48     2.0866     4.6261     0.5715 C
49 C49     1.9756     5.4226    -0.5716 C
50 C50     1.0962     5.0459    -1.5956 C
51 C51     0.3750     3.8611    -1.4974 C
52 H52    -2.1919    -6.2431     0.1693 H
53 H53     0.4659    -5.9661     0.0105 H
54 H54     3.4856    -1.1819    -0.3896 H
55 H55     2.7333     1.3728    -0.4930 H
56 H56    -2.1764     3.8358    -0.2931 H
57 H57    -4.6728     2.8932    -0.1732 H
58 H58    -6.6614    -2.3960     0.2364 H
59 H59    -5.2849    -4.6922     0.2897 H
60 H60     2.7650     4.8801     1.3726 H
61 H61     1.0143     5.6807    -2.4724 H
62 H62    -0.2790     3.5621    -2.3114 H
63 H63     1.4955     2.8093     1.5303 H
64 O64     2.6615     6.5885    -0.7933 O
65 C65     3.7765     6.9474     0.0176 C
66 H66     3.9572     7.9991    -0.2214 H
67 H67     3.5437     6.8798     1.0868 H
68 C68     5.0374     6.1601    -0.3074 C
69 H69     5.0939     5.9992    -1.3906 H
70 H70     5.9228     6.7268     0.0126 H
71 O71     4.9882     4.9151     0.3866 O
72 C72     5.8024     3.9022     0.0059 C
73 C73     5.5507     2.6539     0.6128 C
74 C74     6.8479     3.9982    -0.9107 C
75 C75     6.3267     1.5283     0.3038 C
76 C76     7.6246     2.8712    -1.2274 C
77 H77     7.0688     4.9483    -1.3827 H
78 C78     4.1586     1.4218     2.1569 C
79 C79     5.9952     0.3010     0.9830 C
80 C80     7.3747     1.6476    -0.6310 C
81 H81     8.4308     2.9728    -1.9470 H
82 C82     4.9686     0.2480     1.8624 C
83 H83     6.5872    -0.5854     0.7696 H
84 H84     7.9733     0.7742    -0.8706 H
85 H85     4.6899    -0.6606     2.3825 H
86 O86     4.5208     2.5940     1.5054 O
87 O87     3.2133     1.4700     2.9144 O
88 Ga88    -1.6350    -1.2418    -0.0973 Ga
@<TRIPOS>BOND
1 1 7 Ar
2 1 9 Ar
3 1 35 1
4 2 12 Ar
5 2 14 Ar
6 2 46 1
7 3 17 Ar
8 3 19 Ar
9 3 24 1
10 4 5 Ar
11 4 8 Ar
12 4 22 Ar
13 5 6 Ar
14 5 52 1
15 6 7 Ar
16 6 53 1
17 7 8 Ar
18 8 88 1
19 9 10 Ar
20 9 13 1
21 10 11 2
22 10 54 1
23 11 12 Ar
24 11 55 1
25 12 13 1
26 13 88 1
27 14 15 Ar
28 14 18 1
29 15 16 2
30 15 56 1
31 16 17 Ar
32 16 57 1
33 17 18 1
34 18 88 1
35 19 20 Ar
36 19 23 Ar
37 20 21 Ar
38 20 58 1
39 21 22 Ar
40 21 59 1
41 22 23 Ar
42 23 88 1
43 24 25 Ar
44 24 29 Ar
45 25 26 Ar
46 25 30 1
47 26 27 Ar
48 26 31 1
49 27 28 Ar
50 27 32 1
51 28 29 Ar
52 28 33 1
53 29 34 1
54 35 36 Ar
55 35 40 Ar
56 36 37 Ar
57 36 41 1
58 37 38 Ar
59 37 42 1
60 38 39 Ar
61 38 43 1
62 39 40 Ar
63 39 44 1
64 40 45 1
65 46 47 Ar
66 46 51 Ar
67 47 48 Ar
68 47 63 1
69 48 49 Ar
70 48 60 1
71 49 50 Ar
72 49 64 1
73 50 51 Ar
74 50 61 1
75 51 62 1
76 64 65 1
77 65 66 1
78 65 67 1
79 65 68 1
80 68 69 1
81 68 70 1
82 68 71 1
83 71 72 1
84 72 73 Ar
85 72 74 Ar
86 73 75 Ar
87 73 86 1
88 74 76 Ar
89 74 77 1
90 75 79 Ar
91 75 80 Ar
92 76 80 2
93 76 81 1
94 78 82 1
95 78 86 1
96 78 87 2
97 79 82 2
98 79 83 1
99 80 84 1
100 82 85 1
