# Ga_F13_COOH2_OPT
# Created by GaussView 6.0.16
#

#
#

@<TRIPOS>MOLECULE
Molecule Name
71 81
SMALL
NO_CHARGES


@<TRIPOS>ATOM
1 C1    -3.3651    -1.1876    -0.0137 C
2 C2     0.0043     2.4110     0.0004 C
3 C3     3.3586    -1.2021     0.0114 C
4 C4    -0.7221    -3.6092    -0.0143 C
5 C5    -1.8150    -4.5241    -0.0032 C
6 C6    -2.9851    -3.7742    -0.0082 C
7 C7    -2.6165    -2.3863    -0.0260 C
8 N8    -1.2506    -2.3416    -0.0325 N
9 C9    -2.7948     0.1061    -0.0065 C
10 C10    -3.4870     1.3644    -0.0139 C
11 C11    -2.5560     2.3730    -0.0054 C
12 C12    -1.2534     1.7713    -0.0020 C
13 N13    -1.4293     0.3954    -0.0022 N
14 C14     1.2593     1.7656     0.0032 C
15 C15     2.5645     2.3616     0.0052 C
16 C16     3.4910     1.3489     0.0137 C
17 C17     2.7931     0.0937     0.0075 C
18 N18     1.4288     0.3892     0.0044 N
19 C19     2.6044    -2.3967     0.0207 C
20 C20     2.9674    -3.7861    -0.0025 C
21 C21     1.7946    -4.5313    -0.0086 C
22 C22     0.7051    -3.6120     0.0077 C
23 N23     1.2385    -2.3468     0.0299 N
24 C24     4.8382    -1.3216    -0.0052 C
25 C25     5.5305    -1.9514     1.0334 C
26 C26     6.9128    -2.0953     1.0144 C
27 C27     7.6807    -1.5902    -0.0430 C
28 C28     6.9934    -0.9523    -1.0832 C
29 C29     5.6084    -0.8345    -1.0653 C
30 F30     4.8611    -2.4283     2.0933 F
31 F31     7.4938    -2.6901     2.0597 F
32 F32     7.6443    -0.4754    -2.1500 F
33 F33     5.0128    -0.2397    -2.1104 F
34 C34    -4.8443    -1.3020     0.0029 C
35 C35    -5.5432    -1.9253    -1.0335 C
36 C36    -6.9285    -2.0675    -1.0216 C
37 C37    -7.7054    -1.5765     0.0408 C
38 C38    -6.9953    -0.9445     1.0709 C
39 C39    -5.6155    -0.8156     1.0629 C
40 F40    -4.8774    -2.4040    -2.0929 F
41 F41    -7.4818    -2.6667    -2.0743 F
42 F42    -7.6481    -0.4329     2.1464 F
43 F43    -5.0287    -0.2139     2.1071 F
44 C44     0.0079     3.9002    -0.0017 C
45 C45    -0.4913     4.6322    -1.0836 C
46 C46    -0.4986     6.0232    -1.0945 C
47 C47     0.0166     6.7218    -0.0069 C
48 C48     0.5276     6.0240     1.0833 C
49 C49     0.5117     4.6330     1.0775 C
50 H50    -1.7410    -5.6033     0.0121 H
51 H51    -3.9944    -4.1621     0.0046 H
52 H52    -4.5609     1.4830    -0.0350 H
53 H53    -2.7545     3.4349     0.0005 H
54 H54     2.7677     3.4226    -0.0024 H
55 H55     4.5656     1.4616     0.0315 H
56 H56     3.9755    -4.1769    -0.0189 H
57 H57     1.7162    -5.6102    -0.0281 H
58 Ga58    -0.0026    -0.8760    -0.0004 Ga
59 F59     0.0205     8.0574    -0.0092 F
60 F60    -0.9856     6.6916    -2.1467 F
61 F61     1.0185     6.6932     2.1332 F
62 F62     1.0018     3.9966     2.1512 F
63 F63    -0.9853     3.9949    -2.1550 F
64 C64    -9.2001    -1.7706     0.0339 C
65 C65     9.1600    -1.7822    -0.0403 C
66 O66    -9.9152    -1.0891     0.9495 O
67 H67    -9.3400    -0.5786     1.5465 H
68 O68    -9.7577    -2.4967    -0.7535 O
69 O69     9.7224    -2.7380     0.4474 O
70 O70     9.8106    -0.7627    -0.6326 O
71 H71    10.7619    -0.9871    -0.5959 H
@<TRIPOS>BOND
1 1 7 Ar
2 1 9 Ar
3 1 34 1
4 2 12 Ar
5 2 14 Ar
6 2 44 1
7 3 17 Ar
8 3 19 Ar
9 3 24 1
10 4 5 Ar
11 4 8 Ar
12 4 22 Ar
13 5 6 Ar
14 5 50 1
15 6 7 Ar
16 6 51 1
17 7 8 Ar
18 8 58 1
19 9 10 Ar
20 9 13 1
21 10 11 2
22 10 52 1
23 11 12 Ar
24 11 53 1
25 12 13 1
26 13 58 1
27 14 15 Ar
28 14 18 1
29 15 16 2
30 15 54 1
31 16 17 Ar
32 16 55 1
33 17 18 1
34 18 58 1
35 19 20 Ar
36 19 23 Ar
37 20 21 Ar
38 20 56 1
39 21 22 Ar
40 21 57 1
41 22 23 Ar
42 23 58 1
43 24 25 Ar
44 24 29 Ar
45 25 26 Ar
46 25 30 1
47 26 27 Ar
48 26 31 1
49 27 28 Ar
50 27 65 1
51 28 29 Ar
52 28 32 1
53 29 33 1
54 34 35 Ar
55 34 39 Ar
56 35 36 Ar
57 35 40 1
58 36 37 Ar
59 36 41 1
60 37 38 Ar
61 37 64 1
62 38 39 2
63 38 42 1
64 39 43 1
65 44 45 Ar
66 44 49 Ar
67 45 46 Ar
68 45 63 1
69 46 47 Ar
70 46 60 1
71 47 48 Ar
72 47 59 1
73 48 49 Ar
74 48 61 1
75 49 62 1
76 64 66 1
77 64 68 2
78 65 69 2
79 65 70 1
80 66 67 1
81 70 71 1
