# Ga_F15_SO2Cl2_OPT
# Created by GaussView 6.0.16
#

#
#

@<TRIPOS>MOLECULE
Molecule Name
91 100
SMALL
NO_CHARGES


@<TRIPOS>ATOM
1 C1     3.0180    -0.2969     0.1663 C
2 C2    -0.5395     3.0600    -0.4272 C
3 C3    -3.7354    -0.6094     0.2719 C
4 C4     0.4468    -2.7893     0.3955 C
5 C5     1.4803    -3.6821     0.0581 C
6 C6     2.6330    -2.8938    -0.0588 C
7 C7     2.2806    -1.5235     0.1838 C
8 N8     0.9525    -1.5136     0.4579 N
9 C9     2.3993     0.9311     0.0164 C
10 C10     2.9017     2.2173     0.3354 C
11 C11     1.9196     3.1620     0.1372 C
12 C12     0.7322     2.5221    -0.2976 C
13 N13     1.0286     1.1083    -0.4736 N
14 C14    -1.7554     2.3167    -0.3843 C
15 C15    -3.0730     2.8395    -0.6178 C
16 C16    -3.9622     1.8310    -0.3635 C
17 C17    -3.2072     0.6643     0.0111 C
18 N18    -1.8510     1.0058    -0.0054 N
19 C19    -2.9300    -1.7505     0.5050 C
20 C20    -3.2424    -3.1261     0.3433 C
21 C21    -2.0196    -3.8038     0.3607 C
22 C22    -0.9771    -2.8456     0.5254 C
23 N23    -1.5717    -1.6358     0.6686 N
24 C24    -7.3018    -0.8710    -1.0359 C
25 C25    -5.9315    -0.6411    -0.9782 C
26 C26    -5.2029    -0.8237     0.2019 C
27 C27    -5.9066    -1.2717     1.3255 C
28 C28    -7.2760    -1.5105     1.2884 C
29 C29    -0.0604     6.6415    -1.5970 C
30 C30    -0.0021     5.2541    -1.5228 C
31 C31    -0.6285     4.5399    -0.4941 C
32 C32    -1.3125     5.2859     0.4726 C
33 C33    -1.3902     6.6727     0.4138 C
34 C34     6.3385    -0.8153     1.9102 C
35 C35     4.9790    -0.8123     1.6326 C
36 C36     4.4708    -0.2949     0.4377 C
37 C37     5.3870     0.2281    -0.4801 C
38 C38     6.7536     0.2233    -0.2289 C
39 C39    -0.7599     7.3525    -0.6254 C
40 C40    -7.9754    -1.3078     0.1018 C
41 C41     7.2283    -0.3006     0.9709 C
42 C42     0.9091     0.6842    -1.8889 C
43 C43    -0.0355    -0.2444    -2.3093 C
44 C44     1.7932     1.2232    -2.8240 C
45 C45    -0.0504    -0.5942    -3.6630 C
46 H46    -0.7527    -0.6972    -1.6407 H
47 C47     1.6884     0.8032    -4.1475 C
48 H48     2.5507     1.9410    -2.5334 H
49 N49     0.7857    -0.0902    -4.5737 N
50 H50    -0.7756    -1.3224    -4.0187 H
51 H51     2.3658     1.2034    -4.8980 H
52 F52     0.5442     7.2934    -2.5947 F
53 F53    -5.3129    -0.2433    -2.0985 F
54 F54    -7.9715    -0.6871    -2.1777 F
55 F55    -9.2887    -1.5314     0.0543 F
56 F56    -7.9218    -1.9256     2.3817 F
57 F57    -5.2614    -1.4671     2.4827 F
58 F58    -1.9106     4.6686     1.5030 F
59 F59    -2.0507     7.3556     1.3536 F
60 F60    -0.8231     8.6827    -0.6874 F
61 F61     0.6773     4.6001    -2.4756 F
62 F62     4.9568     0.7387    -1.6429 F
63 F63     4.1428    -1.3291     2.5452 F
64 F64     6.7972    -1.3111     3.0627 F
65 F65     7.6113     0.7198    -1.1261 F
66 F66     8.5371    -0.3015     1.2236 F
67 C67     0.1398     0.8701     2.5973 C
68 C68     1.2747     0.4753     3.3206 C
69 C69    -0.5295     2.0164     3.0491 C
70 C70     1.6817     1.2278     4.4238 C
71 H71     1.8565    -0.3946     3.0311 H
72 C72    -0.0425     2.7037     4.1617 C
73 H73    -1.4097     2.3952     2.5396 H
74 N74     1.0466     2.3291     4.8453 N
75 H75     2.5638     0.9352     4.9917 H
76 H76    -0.5477     3.6011     4.5160 H
77 Ga77    -0.3872    -0.0381     0.9350 Ga
78 S78     4.1220    -3.5788    -0.6785 S
79 S79    -1.8237    -5.5047     0.0555 S
80 O80     5.2873    -3.2178     0.1217 O
81 O81     3.8741    -4.9646    -1.0540 O
82 O82    -0.6079    -5.9914     0.6991 O
83 O83    -3.1062    -6.1805     0.2026 O
84 Cl84     4.3371    -2.4749    -2.5038 Cl
85 Cl85    -1.3863    -5.5102    -2.0438 Cl
86 H86     1.4056    -4.7474    -0.0944 H
87 H87    -4.2170    -3.5609     0.1758 H
88 H88    -5.0385     1.8815    -0.4375 H
89 H89    -3.2990     3.8425    -0.9496 H
90 H90     1.9889     4.2121     0.3840 H
91 H91     3.8783     2.3952     0.7633 H
@<TRIPOS>BOND
1 1 7 Ar
2 1 9 2
3 1 36 1
4 2 12 Ar
5 2 14 Ar
6 2 31 1
7 3 17 Ar
8 3 19 Ar
9 3 26 1
10 4 5 Ar
11 4 8 Ar
12 4 22 Ar
13 5 6 Ar
14 5 86 1
15 6 7 Ar
16 6 78 1
17 7 8 Ar
18 8 77 1
19 9 10 Ar
20 9 13 1
21 10 11 2
22 10 91 1
23 11 12 Ar
24 11 90 1
25 12 13 1
26 13 42 1
27 14 15 Ar
28 14 18 Ar
29 15 16 2
30 15 89 1
31 16 17 Ar
32 16 88 1
33 17 18 1
34 18 77 1
35 19 20 Ar
36 19 23 Ar
37 20 21 Ar
38 20 87 1
39 21 22 Ar
40 21 79 1
41 22 23 Ar
42 23 77 1
43 24 25 Ar
44 24 40 Ar
45 24 54 1
46 25 26 Ar
47 25 53 1
48 26 27 Ar
49 27 28 Ar
50 27 57 1
51 28 40 Ar
52 28 56 1
53 29 30 Ar
54 29 39 Ar
55 29 52 1
56 30 31 Ar
57 30 61 1
58 31 32 Ar
59 32 33 Ar
60 32 58 1
61 33 39 Ar
62 33 59 1
63 34 35 Ar
64 34 41 Ar
65 34 64 1
66 35 36 Ar
67 35 63 1
68 36 37 Ar
69 37 38 Ar
70 37 62 1
71 38 41 Ar
72 38 65 1
73 39 60 1
74 40 55 1
75 41 66 1
76 42 43 Ar
77 42 44 Ar
78 43 45 Ar
79 43 46 1
80 44 47 Ar
81 44 48 1
82 45 49 Ar
83 45 50 1
84 47 49 Ar
85 47 51 1
86 67 68 Ar
87 67 69 Ar
88 67 77 1
89 68 70 Ar
90 68 71 1
91 69 72 Ar
92 69 73 1
93 70 74 Ar
94 70 75 1
95 72 74 Ar
96 72 76 1
97 78 80 2
98 78 81 2
99 79 82 2
100 79 83 2
