# Me_O_OPT
# Created by GaussView 6.0.16
#

#
#

@<TRIPOS>MOLECULE
Molecule Name
89 96
SMALL
NO_CHARGES


@<TRIPOS>ATOM
1 C1     3.4783    -1.1679    -0.0953 C
2 C2    -0.0520     2.2819     0.0140 C
3 C3    -3.3594    -1.3542    -0.0703 C
4 C4     0.8121    -3.6039    -0.3155 C
5 C5     1.8477    -4.4619     0.1077 C
6 C6     3.0251    -3.7092     0.2047 C
7 C7     2.7309    -2.3691    -0.1487 C
8 N8     1.3904    -2.3580    -0.4822 N
9 C9     2.8608     0.0905    -0.1076 C
10 C10     3.4771     1.3759    -0.2568 C
11 C11     2.4999     2.3427    -0.2359 C
12 C12     1.2253     1.7044    -0.0597 C
13 N13     1.4919     0.3483    -0.0143 N
14 C14    -1.2785     1.5561     0.0505 C
15 C15    -2.5899     2.1697     0.2215 C
16 C16    -3.5080     1.1621     0.1934 C
17 C17    -2.7725    -0.0742     0.0127 C
18 N18    -1.4149     0.2031    -0.0600 N
19 C19    -2.5839    -2.5218    -0.2430 C
20 C20    -2.8590    -3.9204    -0.2085 C
21 C21    -1.6415    -4.5989    -0.2650 C
22 C22    -0.6066    -3.6288    -0.3450 C
23 N23    -1.2265    -2.4105    -0.3670 N
24 C24    -4.8409    -1.5021     0.0651 C
25 C25    -5.6491    -1.5679    -1.0889 C
26 C26    -7.0309    -1.7086    -0.9432 C
27 C27    -6.8154    -1.7254     1.4450 C
28 C28    -5.4269    -1.5826     1.3424 C
29 C29     4.9645    -1.2505     0.0191 C
30 C30     5.5976    -0.9621     1.2451 C
31 C31     6.9907    -1.0641     1.3307 C
32 C32     7.1241    -1.7190    -0.9716 C
33 C33     5.7364    -1.6353    -1.0992 C
34 C34    -0.1088     3.7706     0.0374 C
35 C35     0.5388     4.5070     1.0459 C
36 C36     0.5007     5.8945     1.0643 C
37 C37    -0.8488     5.8813    -0.9442 C
38 C38    -0.7967     4.4867    -0.9502 C
39 H39     1.7220    -5.4984     0.3901 H
40 H40     3.9847    -4.0557     0.5624 H
41 H41     1.0036    -1.6538    -1.0967 H
42 H42     4.5379     1.5219    -0.4046 H
43 H43     2.6376     3.4066    -0.3605 H
44 H44     0.7954    -0.2926     0.3400 H
45 H45    -2.7767     3.2249     0.3597 H
46 H46    -4.5826     1.2407     0.2887 H
47 H47    -3.8440    -4.3594    -0.1293 H
48 H48    -1.4947    -5.6705    -0.2557 H
49 H49    -0.8256    -1.4702    -0.2702 H
50 H50     7.7155    -2.0085    -1.8380 H
51 H51     7.4754    -0.8495     2.2805 H
52 H52    -7.2654    -1.7877     2.4334 H
53 H53    -7.6525    -1.7546    -1.8353 H
54 H54    -1.2957     3.9434    -1.7469 H
55 H55     1.0690     3.9764     1.8312 H
56 H56     0.9957     6.4592     1.8481 H
57 H57    -1.3886     6.3954    -1.7305 H
58 C58     7.7718    -1.4371     0.2358 C
59 C59    -7.6345    -1.7876     0.3164 C
60 O60    -0.1743     7.9524     0.1684 O
61 C61    -0.1944     6.5940     0.0673 C
62 C62    -0.8743     8.7039    -0.8138 C
63 H63    -0.7345     9.7529    -0.5447 H
64 H64    -0.4677     8.5344    -1.8194 H
65 H65    -1.9470     8.4715    -0.8118 H
66 C66     5.0850    -1.9467    -2.4247 C
67 H67     4.5265    -2.8894    -2.3881 H
68 H68     4.3726    -1.1666    -2.7146 H
69 H69     5.8358    -2.0338    -3.2161 H
70 C70     4.8037    -0.5582     2.4642 C
71 H71     4.4191     0.4647     2.3756 H
72 H72     3.9377    -1.2111     2.6157 H
73 H73     5.4256    -0.6026     3.3639 H
74 C74    -4.5789    -1.5130     2.5889 C
75 H75    -3.7996    -2.2836     2.5866 H
76 H76    -4.0672    -0.5473     2.6723 H
77 H77    -5.1901    -1.6507     3.4862 H
78 C78    -5.0359    -1.4806    -2.4650 C
79 H79    -4.4464    -0.5641    -2.5824 H
80 H80    -4.3559    -2.3190    -2.6564 H
81 H81    -5.8089    -1.4895    -3.2397 H
82 C82     9.2739    -1.5270     0.3414 C
83 H83     9.6096    -1.4171     1.3775 H
84 H84     9.7631    -0.7427    -0.2509 H
85 H85     9.6454    -2.4883    -0.0332 H
86 C86    -9.1308    -1.9362     0.4420 C
87 H87    -9.4829    -2.8621    -0.0303 H
88 H88    -9.4443    -1.9562     1.4906 H
89 H89    -9.6573    -1.1080    -0.0487 H
@<TRIPOS>BOND
1 1 7 Ar
2 1 9 Ar
3 1 29 1
4 2 12 Ar
5 2 14 Ar
6 2 34 1
7 3 17 Ar
8 3 19 Ar
9 3 24 1
10 4 5 Ar
11 4 8 1
12 4 22 Ar
13 5 6 Ar
14 5 39 1
15 6 7 Ar
16 6 40 1
17 7 8 Ar
18 8 41 1
19 9 10 Ar
20 9 13 1
21 10 11 2
22 10 42 1
23 11 12 Ar
24 11 43 1
25 12 13 1
26 13 44 1
27 14 15 1
28 14 18 Ar
29 15 16 2
30 15 45 1
31 16 17 1
32 16 46 1
33 17 18 1
34 19 20 Ar
35 19 23 Ar
36 20 21 Ar
37 20 47 1
38 21 22 Ar
39 21 48 1
40 22 23 Ar
41 23 49 1
42 24 25 Ar
43 24 28 Ar
44 25 26 Ar
45 25 78 1
46 26 53 1
47 26 59 Ar
48 27 28 Ar
49 27 52 1
50 27 59 Ar
51 28 74 1
52 29 30 Ar
53 29 33 Ar
54 30 31 Ar
55 30 70 1
56 31 51 1
57 31 58 Ar
58 32 33 Ar
59 32 50 1
60 32 58 Ar
61 33 66 1
62 34 35 Ar
63 34 38 Ar
64 35 36 Ar
65 35 55 1
66 36 56 1
67 36 61 Ar
68 37 38 Ar
69 37 57 1
70 37 61 Ar
71 38 54 1
72 58 82 1
73 59 86 1
74 60 61 1
75 60 62 1
76 62 63 1
77 62 64 1
78 62 65 1
79 66 67 1
80 66 68 1
81 66 69 1
82 70 71 1
83 70 72 1
84 70 73 1
85 74 75 1
86 74 76 1
87 74 77 1
88 78 79 1
89 78 80 1
90 78 81 1
91 82 83 1
92 82 84 1
93 82 85 1
94 86 87 1
95 86 88 1
96 86 89 1
