# 16_H3
# Created by GaussView 6.0.16
#

#
#

@<TRIPOS>MOLECULE
Molecule Name
76 83
SMALL
NO_CHARGES


@<TRIPOS>ATOM
1 C1    -3.4131    -1.0563    -0.0792 C
2 C2     0.0157     2.4855     0.1627 C
3 C3     3.4513    -0.9922    -0.1132 C
4 C4    -0.6405    -3.3703    -0.0110 C
5 C5    -1.6096    -4.2282    -0.5773 C
6 C6    -2.8128    -3.5283    -0.6474 C
7 C7    -2.6078    -2.2248    -0.1167 C
8 N8    -1.2890    -2.1852     0.2779 N
9 C9    -2.8488     0.2345     0.0441 C
10 C10    -3.4785     1.4589     0.4328 C
11 C11    -2.5202     2.4438     0.5053 C
12 C12    -1.2516     1.8741     0.1610 C
13 N13    -1.4996     0.5412    -0.1032 N
14 C14     1.2747     1.8387     0.0463 C
15 C15     2.5580     2.5260    -0.0098 C
16 C16     3.5185     1.5631    -0.0940 C
17 C17     2.8309     0.2836    -0.1000 C
18 N18     1.4691     0.4909    -0.0201 N
19 C19     2.7140    -2.1932     0.0059 C
20 C20     3.0161    -3.5811    -0.1834 C
21 C21     1.8218    -4.2869    -0.1642 C
22 C22     0.7712    -3.3493     0.0404 C
23 N23     1.3624    -2.1263     0.1891 N
24 H24    -1.4152    -5.2156    -0.9723 H
25 H25    -3.7221    -3.8768    -1.1169 H
26 H26    -4.5203     1.5606     0.7005 H
27 H27    -2.6761     3.4613     0.8331 H
28 H28     2.7141     3.5954     0.0010 H
29 H29     4.5881     1.7182    -0.1203 H
30 H30     3.9990    -3.9974    -0.3513 H
31 H31     1.6951    -5.3531    -0.2898 H
32 H32    -0.8077    -0.0471    -0.5497 H
33 H33    -0.9444    -1.5138     0.9523 H
34 H34     0.9294    -1.1950     0.1860 H
35 C35     0.0296     3.9614     0.3611 C
36 C36    -0.5658     4.8029    -0.5764 C
37 C37     0.6421     4.5594     1.4729 C
38 N38    -0.5555     6.1451    -0.4258 N
39 H39    -1.0471     4.4223    -1.4679 H
40 C40     0.6400     5.9463     1.6123 C
41 H41     1.1122     3.9343     2.2242 H
42 C42     0.0316     6.7260     0.6468 C
43 H43     1.1019     6.4277     2.4660 H
44 C44    -4.8742    -1.2054    -0.1717 C
45 C45    -5.5096    -2.2634     0.4838 C
46 C46    -5.6910    -0.3351    -0.9198 C
47 N47    -6.8427    -2.4538     0.3946 N
48 H48    -4.9699    -2.9752     1.0948 H
49 C49    -7.0654    -0.5350    -0.9760 C
50 H50    -5.2385     0.4807    -1.4718 H
51 C51    -7.6291    -1.6127    -0.3141 C
52 H52    -7.7055     0.1231    -1.5515 H
53 H53    -8.6878    -1.8376    -0.3295 H
54 C54     4.9154    -1.0954    -0.2952 C
55 C55     5.6680    -1.8759     0.5811 C
56 C56     5.6029    -0.4534    -1.3395 C
57 N57     7.0011    -2.0232     0.4319 N
58 H58     5.2211    -2.3825     1.4262 H
59 C59     6.9805    -0.6102    -1.4704 C
60 H60     5.0513     0.1481    -2.0536 H
61 C61     7.6670    -1.4095    -0.5729 C
62 H62     7.5258    -0.1323    -2.2756 H
63 H63     8.7344    -1.5862    -0.6217 H
64 C64    -7.4595    -3.5795     1.1353 C
65 H65    -7.6656    -3.2608     2.1596 H
66 H66    -8.3865    -3.8646     0.6386 H
67 H67    -6.7667    -4.4212     1.1356 H
68 C68     7.7601    -2.8243     1.4200 C
69 H69     8.5407    -3.3806     0.9010 H
70 H70     8.2059    -2.1505     2.1550 H
71 H71     7.0795    -3.5181     1.9119 H
72 H72    -0.0081     7.8076     0.6914 H
73 C73    -1.1782     7.0133    -1.4507 C
74 H74    -2.0014     7.5666    -0.9948 H
75 H75    -0.4270     7.7066    -1.8322 H
76 H76    -1.5521     6.3931    -2.2631 H
@<TRIPOS>BOND
1 1 7 Ar
2 1 9 Ar
3 1 44 1
4 2 12 Ar
5 2 14 Ar
6 2 35 1
7 3 17 Ar
8 3 19 Ar
9 3 54 1
10 4 5 Ar
11 4 8 Ar
12 4 22 Ar
13 5 6 Ar
14 5 24 1
15 6 7 Ar
16 6 25 1
17 7 8 Ar
18 8 33 1
19 9 10 Ar
20 9 13 1
21 10 11 2
22 10 26 1
23 11 12 Ar
24 11 27 1
25 12 13 Ar
26 13 32 1
27 14 15 1
28 14 18 Ar
29 15 16 2
30 15 28 1
31 16 17 1
32 16 29 1
33 17 18 Ar
34 19 20 Ar
35 19 23 Ar
36 20 21 Ar
37 20 30 1
38 21 22 Ar
39 21 31 1
40 22 23 Ar
41 23 34 1
42 35 36 Ar
43 35 37 Ar
44 36 38 Ar
45 36 39 1
46 37 40 Ar
47 37 41 1
48 38 42 Ar
49 38 73 1
50 40 42 2
51 40 43 1
52 42 72 1
53 44 45 Ar
54 44 46 Ar
55 45 47 Ar
56 45 48 1
57 46 49 Ar
58 46 50 1
59 47 51 Ar
60 47 64 1
61 49 51 2
62 49 52 1
63 51 53 1
64 54 55 Ar
65 54 56 Ar
66 55 57 Ar
67 55 58 1
68 56 59 Ar
69 56 60 1
70 57 61 Ar
71 57 68 1
72 59 61 2
73 59 62 1
74 61 63 1
75 64 65 1
76 64 66 1
77 64 67 1
78 68 69 1
79 68 70 1
80 68 71 1
81 73 74 1
82 73 75 1
83 73 76 1
