# N3_Cl_OPT
# Created by GaussView 6.0.16
#

#
#

@<TRIPOS>MOLECULE
Molecule Name
67 74
SMALL
NO_CHARGES


@<TRIPOS>ATOM
1 C1     3.4297    -1.3006    -0.0999 C
2 C2    -0.0003     2.2452    -0.0567 C
3 C3    -3.4296    -1.2790    -0.1362 C
4 C4     0.6839    -3.6436    -0.3156 C
5 C5     1.6877    -4.5428     0.0957 C
6 C6     2.8927    -3.8369     0.1902 C
7 C7     2.6463    -2.4810    -0.1428 C
8 N8     1.3040    -2.4161    -0.4670 N
9 C9     2.8553    -0.0201    -0.1233 C
10 C10     3.5096     1.2529    -0.2104 C
11 C11     2.5576     2.2437    -0.2066 C
12 C12     1.2622     1.6358    -0.0951 C
13 N13     1.4897     0.2716    -0.0737 N
14 C14    -1.2528     1.5672    -0.0485 C
15 C15    -2.5432     2.2373     0.0131 C
16 C16    -3.4984     1.2655    -0.0122 C
17 C17    -2.8058    -0.0084    -0.0710 C
18 N18    -1.4380     0.2153    -0.0931 N
19 C19    -2.6821    -2.4719    -0.2948 C
20 C20    -2.9865    -3.8641    -0.2100 C
21 C21    -1.7870    -4.5705    -0.2555 C
22 C22    -0.7322    -3.6264    -0.3659 C
23 N23    -1.3235    -2.3946    -0.4292 N
24 C24    -4.9006    -1.3995    -0.0019 C
25 C25    -5.6467    -2.1334    -0.9392 C
26 C26    -7.0264    -2.2760    -0.8130 C
27 C27    -6.9623    -0.9453     1.2169 C
28 C28    -5.5829    -0.8143     1.0778 C
29 C29     4.9094    -1.4301     0.0079 C
30 C30     5.4951    -1.9838     1.1556 C
31 C31     6.8775    -2.1255     1.2614 C
32 C32     7.1316    -1.1430    -0.9448 C
33 C33     5.7467    -1.0156    -1.0376 C
34 C34    -0.0090     3.7375    -0.0354 C
35 C35     0.5712     4.4417     1.0301 C
36 C36     0.5800     5.8352     1.0570 C
37 C37    -0.5890     5.8653    -1.0711 C
38 C38    -0.5843     4.4721    -1.0833 C
39 H39     1.5278    -5.5788     0.3624 H
40 H40     3.8404    -4.2317     0.5271 H
41 H41     0.9540    -1.7120    -1.1040 H
42 H42     4.5787     1.3833    -0.2958 H
43 H43     2.7310     3.3063    -0.2923 H
44 H44     0.7738    -0.3500     0.2776 H
45 H45    -2.6995     3.3048     0.0699 H
46 H46    -4.5703     1.4030    -0.0094 H
47 H47    -3.9764    -4.2831    -0.0993 H
48 H48    -1.6641    -5.6440    -0.2101 H
49 H49    -0.8999    -1.4634    -0.3320 H
50 H50     5.3088    -0.5973    -1.9384 H
51 H51     7.7724    -0.8224    -1.7590 H
52 H52     7.3232    -2.5508     2.1539 H
53 H53     4.8622    -2.2952     1.9807 H
54 H54    -5.1415    -2.5827    -1.7881 H
55 H55    -5.0221    -0.2665     1.8277 H
56 H56    -7.4778    -0.4952     2.0583 H
57 H57    -7.5934    -2.8365    -1.5483 H
58 H58    -1.0277     3.9451    -1.9221 H
59 H59     1.0133     3.8904     1.8541 H
60 H60     1.0267     6.3696     1.8884 H
61 H61    -1.0336     6.4237    -1.8878 H
62 C62     7.6823    -1.7007     0.2068 C
63 C63    -7.6713    -1.6774     0.2670 C
64 C64    -0.0040     6.5331     0.0027 C
65 Cl65     9.4312    -1.8719     0.3326 Cl
66 Cl66    -9.4158    -1.8535     0.4384 Cl
67 Cl67    -0.0025     8.2957     0.0267 Cl
@<TRIPOS>BOND
1 1 7 Ar
2 1 9 Ar
3 1 29 1
4 2 12 Ar
5 2 14 Ar
6 2 34 1
7 3 17 Ar
8 3 19 Ar
9 3 24 1
10 4 5 Ar
11 4 8 1
12 4 22 Ar
13 5 6 Ar
14 5 39 1
15 6 7 Ar
16 6 40 1
17 7 8 1
18 8 41 1
19 9 10 Ar
20 9 13 1
21 10 11 2
22 10 42 1
23 11 12 Ar
24 11 43 1
25 12 13 1
26 13 44 1
27 14 15 1
28 14 18 Ar
29 15 16 2
30 15 45 1
31 16 17 1
32 16 46 1
33 17 18 1
34 19 20 Ar
35 19 23 Ar
36 20 21 Ar
37 20 47 1
38 21 22 Ar
39 21 48 1
40 22 23 Ar
41 23 49 1
42 24 25 Ar
43 24 28 Ar
44 25 26 Ar
45 25 54 1
46 26 57 1
47 26 63 Ar
48 27 28 Ar
49 27 56 1
50 27 63 Ar
51 28 55 1
52 29 30 Ar
53 29 33 Ar
54 30 31 Ar
55 30 53 1
56 31 52 1
57 31 62 Ar
58 32 33 Ar
59 32 51 1
60 32 62 Ar
61 33 50 1
62 34 35 Ar
63 34 38 Ar
64 35 36 Ar
65 35 59 1
66 36 60 1
67 36 64 Ar
68 37 38 Ar
69 37 61 1
70 37 64 Ar
71 38 58 1
72 62 65 1
73 63 66 1
74 64 67 1
