# OHF10C_TD
# Created by GaussView 6.0.16
#

#
#

@<TRIPOS>MOLECULE
Molecule Name
64 71
SMALL
NO_CHARGES


@<TRIPOS>ATOM
1 C1     3.4270    -1.0397    -0.0521 C
2 C2     0.0036     2.5109    -0.0191 C
3 C3    -3.4295    -1.0052    -0.0663 C
4 C4     0.6772    -3.3783    -0.2352 C
5 C5     1.6807    -4.2776     0.1775 C
6 C6     2.8874    -3.5745     0.2619 C
7 C7     2.6429    -2.2198    -0.0794 C
8 N8     1.2995    -2.1533    -0.3987 N
9 C9     2.8565     0.2434    -0.0838 C
10 C10     3.5124     1.5149    -0.1799 C
11 C11     2.5618     2.5070    -0.1728 C
12 C12     1.2668     1.9009    -0.0522 C
13 N13     1.4924     0.5372    -0.0256 N
14 C14    -1.2503     1.8378    -0.0078 C
15 C15    -2.5397     2.5113     0.0495 C
16 C16    -3.4961     1.5413     0.0386 C
17 C17    -2.8051     0.2654    -0.0092 C
18 N18    -1.4378     0.4859    -0.0376 N
19 C19    -2.6859    -2.2012    -0.2168 C
20 C20    -2.9930    -3.5932    -0.1262 C
21 C21    -1.7950    -4.3012    -0.1661 C
22 C22    -0.7383    -3.3589    -0.2801 C
23 N23    -1.3276    -2.1266    -0.3476 N
24 C24    -4.8999    -1.1216     0.0666 C
25 C25    -5.6563    -1.8688    -0.8491 C
26 C26    -7.0342    -1.9706    -0.6730 C
27 C27    -6.9794    -0.6808     1.2076 C
28 C28    -5.5984    -0.5206     1.1249 C
29 C29     4.9056    -1.1703     0.0408 C
30 C30     5.5168    -1.7613     1.1545 C
31 C31     6.9054    -1.8758     1.1860 C
32 C32     7.1243    -0.8778    -0.8540 C
33 C33     5.7459    -0.7215    -0.9866 C
34 C34    -0.0018     4.0020    -0.0108 C
35 C35     0.5889     4.7265     1.0332 C
36 C36     0.5709     6.1194     0.9921 C
37 C37    -0.5504     6.1338    -0.9950 C
38 C38    -0.5828     4.7420    -1.0497 C
39 H39     1.5196    -5.3112     0.4522 H
40 H40     3.8347    -3.9709     0.5974 H
41 H41     0.9503    -1.4565    -1.0443 H
42 H42     4.5807     1.6459    -0.2704 H
43 H43     2.7373     3.5688    -0.2630 H
44 H44     0.7766    -0.0830     0.3281 H
45 H45    -2.6949     3.5795     0.0952 H
46 H46    -4.5676     1.6813     0.0434 H
47 H47    -3.9837    -4.0105    -0.0163 H
48 H48    -1.6740    -5.3747    -0.1167 H
49 H49    -0.9020    -1.1956    -0.2586 H
50 H50     5.3292    -0.2693    -1.8806 H
51 H51     7.7890    -0.5343    -1.6446 H
52 H52     7.3938    -2.3309     2.0457 H
53 H53     4.9197    -2.1119     1.9899 H
54 H54    -5.1766    -2.3472    -1.6966 H
55 H55    -5.0670     0.0465     1.8814 H
56 H56    -7.5311    -0.2202     2.0251 H
57 H57    -7.6315    -2.5427    -1.3808 H
58 N58     7.7121    -1.4456     0.2072 N
59 N59    -7.7039    -1.3911     0.3323 N
60 H60    -1.0450     4.2374    -1.8917 H
61 H61     1.0459     4.2089     1.8704 H
62 H62     1.0231     6.6938     1.7988 H
63 H63    -0.9958     6.7203    -1.7966 H
64 N64     0.0139     6.8288     0.0019 N
@<TRIPOS>BOND
1 1 7 Ar
2 1 9 Ar
3 1 29 1
4 2 12 Ar
5 2 14 Ar
6 2 34 1
7 3 17 Ar
8 3 19 Ar
9 3 24 1
10 4 5 Ar
11 4 8 1
12 4 22 Ar
13 5 6 Ar
14 5 39 1
15 6 7 Ar
16 6 40 1
17 7 8 1
18 8 41 1
19 9 10 Ar
20 9 13 1
21 10 11 2
22 10 42 1
23 11 12 Ar
24 11 43 1
25 12 13 1
26 13 44 1
27 14 15 1
28 14 18 Ar
29 15 16 2
30 15 45 1
31 16 17 1
32 16 46 1
33 17 18 1
34 19 20 Ar
35 19 23 Ar
36 20 21 Ar
37 20 47 1
38 21 22 Ar
39 21 48 1
40 22 23 Ar
41 23 49 1
42 24 25 Ar
43 24 28 Ar
44 25 26 Ar
45 25 54 1
46 26 57 1
47 26 59 Ar
48 27 28 Ar
49 27 56 1
50 27 59 Ar
51 28 55 1
52 29 30 Ar
53 29 33 Ar
54 30 31 Ar
55 30 53 1
56 31 52 1
57 31 58 Ar
58 32 33 Ar
59 32 51 1
60 32 58 Ar
61 33 50 1
62 34 35 Ar
63 34 38 Ar
64 35 36 Ar
65 35 61 1
66 36 62 1
67 36 64 Ar
68 37 38 Ar
69 37 63 1
70 37 64 Ar
71 38 60 1
