# N3_OPT_py
# Created by GaussView 6.0.16
#

#
#

@<TRIPOS>MOLECULE
Molecule Name
84 91
SMALL
NO_CHARGES


@<TRIPOS>ATOM
1 C1     3.4308    -0.8319    -0.0827 C
2 C2    -0.0184     2.6979    -0.0654 C
3 C3    -3.4088    -0.8578    -0.0600 C
4 C4     0.7106    -3.2080    -0.2589 C
5 C5     1.7259    -4.0827     0.1788 C
6 C6     2.9209    -3.3565     0.2600 C
7 C7     2.6574    -2.0170    -0.1178 C
8 N8     1.3173    -1.9802    -0.4506 N
9 C9     2.8429     0.4392    -0.1177 C
10 C10     3.4914     1.7049    -0.2911 C
11 C11     2.5394     2.6960    -0.2938 C
12 C12     1.2482     2.0929    -0.1079 C
13 N13     1.4798     0.7332    -0.0319 N
14 C14    -1.2644     2.0059    -0.0195 C
15 C15    -2.5634     2.6550     0.1171 C
16 C16    -3.5028     1.6671     0.1228 C
17 C17    -2.7939     0.4092    -0.0066 C
18 N18    -1.4288     0.6544    -0.0769 N
19 C19    -2.6593    -2.0469    -0.2037 C
20 C20    -2.9671    -3.4377    -0.1477 C
21 C21    -1.7657    -4.1452    -0.1927 C
22 C22    -0.7088    -3.2005    -0.2860 C
23 N23    -1.2999    -1.9689    -0.3253 N
24 H24     1.5760    -5.1106     0.4802 H
25 H25     3.8723    -3.7187     0.6238 H
26 H26     0.9467    -1.2790    -1.0786 H
27 H27     4.5558     1.8209    -0.4393 H
28 H28     2.7069     3.7524    -0.4433 H
29 H29     0.7655     0.1172     0.3317 H
30 H30    -2.7315     3.7181     0.2126 H
31 H31    -4.5759     1.7739     0.2059 H
32 H32    -3.9621    -3.8526    -0.0645 H
33 H33    -1.6438    -5.2196    -0.1679 H
34 H34    -0.8770    -1.0366    -0.2499 H
35 C35    -4.8937    -0.9699     0.0724 C
36 C36    -5.6989    -1.0499    -1.0827 C
37 C37    -5.4849    -1.0049     1.3493 C
38 C38    -7.0833    -1.1606    -0.9383 C
39 C39    -6.8760    -1.1196     1.4504 C
40 C40    -7.6924    -1.1962     0.3207 C
41 H41    -7.7027    -1.2179    -1.8312 H
42 H42    -7.3300    -1.1481     2.4384 H
43 C43     4.9152    -0.9440     0.0319 C
44 C44     5.6777    -1.3414    -1.0849 C
45 C45     5.5542    -0.6619     1.2590 C
46 C46     7.0668    -1.4435    -0.9584 C
47 C47     6.9432    -0.7828     1.3433 C
48 C48     7.7185    -1.1713     0.2461 C
49 H49     7.6532    -1.7394    -1.8254 H
50 H50     7.4325    -0.5698     2.2915 H
51 C51    -0.0432     4.1854    -0.1022 C
52 C52    -0.7324     4.8829    -1.1056 C
53 C53     0.6317     4.9584     0.8536 C
54 C54    -0.7178     6.2754    -1.1036 C
55 H55    -1.2629     4.3420    -1.8823 H
56 C56     0.5887     6.3482     0.7643 C
57 H57     1.1729     4.4798     1.6632 H
58 N58    -0.0715     7.0153    -0.1917 N
59 H59    -1.2472     6.8256    -1.8796 H
60 H60     1.1067     6.9568     1.5036 H
61 C61    -5.0800    -1.0099    -2.4587 C
62 H62    -4.4699    -0.1100    -2.5966 H
63 H63    -4.4191    -1.8681    -2.6279 H
64 H64    -5.8512    -1.0201    -3.2352 H
65 C65    -9.1913    -1.3165     0.4445 C
66 H66    -9.7022    -0.4878    -0.0615 H
67 H67    -9.5579    -2.2441    -0.0130 H
68 H68    -9.5077    -1.3135     1.4923 H
69 C69    -4.6394    -0.9180     2.5964 C
70 H70    -3.8656    -1.6941     2.6104 H
71 H71    -4.1211     0.0457     2.6630 H
72 H72    -5.2536    -1.0340     3.4946 H
73 C73     4.7645    -0.2409     2.4751 C
74 H74     4.3912     0.7857     2.3795 H
75 H75     3.8913    -0.8835     2.6304 H
76 H76     5.3852    -0.2864     3.3754 H
77 C77     9.2152    -1.3122     0.3726 C
78 H78     9.6595    -0.4461     0.8770 H
79 H79     9.4823    -2.1983     0.9634 H
80 H80     9.6920    -1.4139    -0.6075 H
81 C81     5.0214    -1.6448    -2.4096 C
82 H82     4.4481    -2.5786    -2.3703 H
83 H83     4.3219    -0.8541    -2.7024 H
84 H84     5.7705    -1.7466    -3.2009 H
@<TRIPOS>BOND
1 1 7 Ar
2 1 9 Ar
3 1 43 1
4 2 12 Ar
5 2 14 Ar
6 2 51 1
7 3 17 Ar
8 3 19 Ar
9 3 35 1
10 4 5 Ar
11 4 8 1
12 4 22 Ar
13 5 6 Ar
14 5 24 1
15 6 7 Ar
16 6 25 1
17 7 8 Ar
18 8 26 1
19 9 10 Ar
20 9 13 1
21 10 11 2
22 10 27 1
23 11 12 Ar
24 11 28 1
25 12 13 Ar
26 13 29 1
27 14 15 1
28 14 18 Ar
29 15 16 2
30 15 30 1
31 16 17 1
32 16 31 1
33 17 18 1
34 19 20 Ar
35 19 23 Ar
36 20 21 Ar
37 20 32 1
38 21 22 Ar
39 21 33 1
40 22 23 Ar
41 23 34 1
42 35 36 Ar
43 35 37 Ar
44 36 38 Ar
45 36 61 1
46 37 39 Ar
47 37 69 1
48 38 40 Ar
49 38 41 1
50 39 40 Ar
51 39 42 1
52 40 65 1
53 43 44 Ar
54 43 45 Ar
55 44 46 Ar
56 44 81 1
57 45 47 Ar
58 45 73 1
59 46 48 Ar
60 46 49 1
61 47 48 Ar
62 47 50 1
63 48 77 1
64 51 52 Ar
65 51 53 Ar
66 52 54 Ar
67 52 55 1
68 53 56 Ar
69 53 57 1
70 54 58 Ar
71 54 59 1
72 56 58 Ar
73 56 60 1
74 61 62 1
75 61 63 1
76 61 64 1
77 65 66 1
78 65 67 1
79 65 68 1
80 69 70 1
81 69 71 1
82 69 72 1
83 73 74 1
84 73 75 1
85 73 76 1
86 77 78 1
87 77 79 1
88 77 80 1
89 81 82 1
90 81 83 1
91 81 84 1
