# N3_OPT
# Created by GaussView 6.0.16
#

#
#

@<TRIPOS>MOLECULE
Molecule Name
61 65
SMALL
NO_CHARGES


@<TRIPOS>ATOM
1 C1     0.3338    -3.3819    -0.1376 C
2 C2     3.3020     0.4848     0.1149 C
3 C3    -0.6614     3.3130     0.0432 C
4 C4    -2.4465    -1.0712    -0.1633 C
5 C5    -3.1513    -2.2336     0.2193 C
6 C6    -2.2367    -3.3115     0.2253 C
7 C7    -0.9589    -2.8126    -0.1306 C
8 N8    -1.1306    -1.4609    -0.3711 N
9 C9     1.5146    -2.6485    -0.1242 C
10 C10     2.8774    -3.1234    -0.2086 C
11 C11     3.7246    -2.0321    -0.1377 C
12 C12     2.9141    -0.8444    -0.0048 C
13 N13     1.6024    -1.2637    -0.0348 N
14 C14     2.4568     1.6153     0.1666 C
15 C15     2.9394     2.9982     0.2236 C
16 C16     1.8266     3.7983     0.2044 C
17 C17     0.6726     2.9027     0.1344 C
18 N18     1.0990     1.5853     0.1294 N
19 C19    -1.7506     2.4259    -0.0736 C
20 C20    -3.1643     2.5646    -0.2190 C
21 C21    -3.7197     1.2731    -0.2725 C
22 C22    -2.6484     0.3401    -0.1521 C
23 N23    -1.5046     1.0841    -0.0502 N
24 H24    -0.5292    -0.9616    -1.0145 H
25 H25     0.8777    -0.6508     0.3100 H
26 H26    -0.5466     0.7751     0.1224 H
27 H27    -0.8674     4.3783     0.0535 H
28 H28     0.4186    -4.4627    -0.1113 H
29 H29     4.3706     0.6709     0.1415 H
30 C30     5.2191    -2.0103    -0.2105 C
31 H31     5.5683    -1.4701    -1.0999 H
32 H32     5.6556    -1.5082     0.6618 H
33 H33     5.6355    -3.0203    -0.2540 H
34 C34     3.2369    -4.5664    -0.3778 C
35 H35     2.7601    -5.1887     0.3898 H
36 H36     2.9109    -4.9518    -1.3525 H
37 H37     4.3165    -4.7235    -0.3052 H
38 C38    -2.5383    -4.7115     0.6630 C
39 H39    -1.6796    -5.3720     0.5087 H
40 H40    -2.7990    -4.7590     1.7290 H
41 H41    -3.3847    -5.1333     0.1075 H
42 C42    -4.5780    -2.3111     0.6705 C
43 H43    -4.9198    -1.3554     1.0765 H
44 H44    -5.2569    -2.5839    -0.1487 H
45 H45    -4.7013    -3.0682     1.4529 H
46 C46    -5.1686     0.9516    -0.4805 C
47 H47    -5.2972    -0.0223    -0.9617 H
48 H48    -5.7317     0.9317     0.4625 H
49 H49    -5.6479     1.7025    -1.1190 H
50 C50    -3.9130     3.8580    -0.3061 C
51 H51    -4.6201     3.8612    -1.1452 H
52 H52    -4.4984     4.0532     0.6026 H
53 H53    -3.2327     4.7038    -0.4470 H
54 C54     1.7460     5.2928     0.2281 C
55 H55     1.2721     5.6869    -0.6806 H
56 H56     1.1536     5.6527     1.0792 H
57 H57     2.7378     5.7489     0.3039 H
58 C58     4.3812     3.3974     0.2793 C
59 H59     4.8817     2.9896     1.1674 H
60 H60     4.9371     3.0336    -0.5949 H
61 H61     4.4965     4.4852     0.3098 H
@<TRIPOS>BOND
1 1 7 Ar
2 1 9 Ar
3 1 28 1
4 2 12 Ar
5 2 14 Ar
6 2 29 1
7 3 17 Ar
8 3 19 Ar
9 3 27 1
10 4 5 Ar
11 4 8 1
12 4 22 Ar
13 5 6 Ar
14 5 42 1
15 6 7 Ar
16 6 38 1
17 7 8 1
18 8 24 1
19 9 10 Ar
20 9 13 1
21 10 11 2
22 10 34 1
23 11 12 Ar
24 11 30 1
25 12 13 Ar
26 13 25 1
27 14 15 1
28 14 18 Ar
29 15 16 2
30 15 58 1
31 16 17 1
32 16 54 1
33 17 18 1
34 19 20 Ar
35 19 23 Ar
36 20 21 Ar
37 20 50 1
38 21 22 Ar
39 21 46 1
40 22 23 Ar
41 23 26 1
42 30 31 1
43 30 32 1
44 30 33 1
45 34 35 1
46 34 36 1
47 34 37 1
48 38 39 1
49 38 40 1
50 38 41 1
51 42 43 1
52 42 44 1
53 42 45 1
54 46 47 1
55 46 48 1
56 46 49 1
57 50 51 1
58 50 52 1
59 50 53 1
60 54 55 1
61 54 56 1
62 54 57 1
63 58 59 1
64 58 60 1
65 58 61 1
