# N3_R-CO2Et_L-OCHH3_OPT
# Created by GaussView 6.0.16
#

#
#

@<TRIPOS>MOLECULE
Molecule Name
71 77
SMALL
NO_CHARGES


@<TRIPOS>ATOM
1 C1    -2.9780    -1.5720    -0.4171 C
2 C2    -0.3166     2.5415    -0.4949 C
3 C3     3.5935    -0.3554     0.1409 C
4 C4     0.0439    -3.4260    -0.2725 C
5 C5    -0.8467    -4.5299    -0.3210 C
6 C6    -2.1250    -4.0069    -0.3912 C
7 C7    -2.0138    -2.5796    -0.3927 C
8 N8    -0.6853    -2.2664    -0.3242 N
9 C9    -2.6205    -0.2249    -0.4496 C
10 C10    -3.5258     0.8688    -0.6194 C
11 C11    -2.7956     2.0208    -0.6598 C
12 C12    -1.4138     1.6709    -0.5020 C
13 N13    -1.3260     0.2938    -0.3890 N
14 C14     1.0085     2.1124    -0.3530 C
15 C15     2.1747     2.9419    -0.3074 C
16 C16     3.2522     2.1348    -0.0826 C
17 C17     2.7910     0.7830     0.0155 C
18 N18     1.3990     0.7955    -0.1597 N
19 C19     3.0406    -1.6365     0.0288 C
20 C20     3.6386    -2.9311     0.0820 C
21 C21     2.6319    -3.8760    -0.0362 C
22 C22     1.4150    -3.1686    -0.1552 C
23 N23     1.6833    -1.8143    -0.1172 N
24 H24    -0.5602    -5.5723    -0.3074 H
25 H25    -4.5972     0.7625    -0.7166 H
26 H26    -3.1620     3.0261    -0.7806 H
27 H27     2.1679     4.0095    -0.4540 H
28 H28     4.2877     2.4383    -0.0327 H
29 H29     4.6988    -3.1105     0.1764 H
30 H30    -3.0576    -4.5482    -0.4590 H
31 H31     2.7377    -4.9520    -0.0422 H
32 C32    -4.4196    -1.9775    -0.4605 C
33 O33    -4.8663    -2.7104    -1.3161 O
34 O34    -5.2443    -1.5009     0.4981 O
35 C35    -4.7332    -1.0101     1.7662 C
36 H36    -3.7789    -1.4950     1.9893 H
37 C37     5.0718    -0.2523     0.3807 C
38 O38     5.8549    -0.9162    -0.2825 O
39 C39     5.5556     0.5779     1.5624 C
40 H40     5.4966    -0.1071     2.4234 H
41 H41     4.8553     1.3847     1.7898 H
42 C42     6.9848     1.0891     1.3975 C
43 H43     7.0558     1.8025     0.5682 H
44 H44     7.3210     1.5942     2.3088 H
45 H45     7.6687     0.2635     1.1838 H
46 C46    -5.7747    -1.3220     2.8211 C
47 H47    -6.7291    -0.8408     2.5835 H
48 H48    -5.9410    -2.4012     2.9004 H
49 H49    -5.4332    -0.9499     3.7937 H
50 H50    -4.5575     0.0662     1.6845 H
51 C51    -0.5310     4.0134    -0.6488 C
52 O52    -1.5598     4.4653     0.0952 O
53 O53     0.1531     4.7450    -1.3402 O
54 P54     0.2467    -0.6762    -0.2465 P
55 O55    -0.0282    -0.6035     1.4242 O
56 C56     0.9715    -0.7690     2.4134 C
57 H57     1.4126    -1.7723     2.4009 H
58 H58     1.7683    -0.0216     2.3211 H
59 H59     0.4718    -0.6215     3.3757 H
60 O60     0.2740    -0.6099    -1.9344 O
61 C61     1.4394    -0.7851    -2.7239 C
62 H62     1.1431    -0.5565    -3.7518 H
63 H63     2.2427    -0.0974    -2.4366 H
64 H64     1.8144    -1.8144    -2.6872 H
65 C65    -1.8545     5.8799    -0.0244 C
66 H66    -0.9624     6.4464     0.2584 H
67 H67    -2.0775     6.1058    -1.0718 H
68 C68    -3.0268     6.1745     0.8872 C
69 H69    -3.2703     7.2416     0.8382 H
70 H70    -3.9144     5.6067     0.5888 H
71 H71    -2.7885     5.9240     1.9260 H
@<TRIPOS>BOND
1 1 7 Ar
2 1 9 Ar
3 1 32 1
4 2 12 Ar
5 2 14 Ar
6 2 51 1
7 3 17 Ar
8 3 19 Ar
9 3 37 1
10 4 5 Ar
11 4 8 Ar
12 4 22 Ar
13 5 6 2
14 5 24 1
15 6 7 Ar
16 6 30 1
17 7 8 Ar
18 8 54 1
19 9 10 Ar
20 9 13 1
21 10 11 2
22 10 25 1
23 11 12 Ar
24 11 26 1
25 12 13 1
26 13 54 1
27 14 15 Ar
28 14 18 1
29 15 16 2
30 15 27 1
31 16 17 Ar
32 16 28 1
33 17 18 1
34 19 20 Ar
35 19 23 Ar
36 20 21 2
37 20 29 1
38 21 22 Ar
39 21 31 1
40 22 23 Ar
41 23 54 1
42 32 33 2
43 32 34 1
44 34 35 1
45 35 36 1
46 35 46 1
47 35 50 1
48 37 38 2
49 37 39 1
50 39 40 1
51 39 41 1
52 39 42 1
53 42 43 1
54 42 44 1
55 42 45 1
56 46 47 1
57 46 48 1
58 46 49 1
59 51 52 1
60 51 53 2
61 52 65 1
62 54 55 1
63 54 60 1
64 55 56 1
65 56 57 1
66 56 58 1
67 56 59 1
68 60 61 1
69 61 62 1
70 61 63 1
71 61 64 1
72 65 66 1
73 65 67 1
74 65 68 1
75 68 69 1
76 68 70 1
77 68 71 1
