# N3Ga_OPT_py_CHO
# Created by GaussView 6.0.16
#

#
#

@<TRIPOS>MOLECULE
Molecule Name
78 88
SMALL
NO_CHARGES


@<TRIPOS>ATOM
1 C1     3.4415    -1.2563    -0.3336 C
2 C2     0.2440     2.4836    -0.3038 C
3 C3    -3.2726    -0.9595    -0.3465 C
4 C4     0.6974    -3.5529    -0.3633 C
5 C5     1.7392    -4.5088    -0.5403 C
6 C6     2.9422    -3.8097    -0.5212 C
7 C7     2.6357    -2.4197    -0.3372 C
8 N8     1.2785    -2.3235    -0.2203 N
9 C9     2.9338     0.0613    -0.3142 C
10 C10     3.6895     1.2852    -0.3128 C
11 C11     2.8048     2.3347    -0.3066 C
12 C12     1.4761     1.7839    -0.3076 C
13 N13     1.5863     0.4120    -0.3018 N
14 C14    -1.0364     1.8942    -0.3301 C
15 C15    -2.3152     2.5544    -0.4152 C
16 C16    -3.2843     1.5866    -0.4237 C
17 C17    -2.6378     0.2982    -0.3384 C
18 N18    -1.2694     0.5356    -0.2752 N
19 C19    -2.5861    -2.2055    -0.3297 C
20 C20    -3.0017    -3.5926    -0.4447 C
21 C21    -1.8312    -4.3728    -0.4781 C
22 C22    -0.7361    -3.4968    -0.3642 C
23 N23    -1.2285    -2.2149    -0.2589 N
24 H24     1.6102    -5.5732    -0.6850 H
25 H25     4.7684     1.3508    -0.3150 H
26 H26     3.0475     3.3878    -0.3092 H
27 H27    -2.4628     3.6225    -0.4910 H
28 H28    -4.3513     1.7405    -0.5028 H
29 H29     3.9314    -4.2265    -0.6553 H
30 H30    -1.8058    -5.4497    -0.5665 H
31 Ga31     0.0970    -0.7948     0.0631 Ga
32 C32    -4.7581    -0.9459    -0.4420 C
33 C33    -5.5558    -0.6413     0.6625 C
34 C34    -5.4126    -1.2224    -1.6451 C
35 C35    -6.9448    -0.6188     0.5843 C
36 C36    -6.7996    -1.2081    -1.7482 C
37 C37    -7.5674    -0.9058    -0.6268 C
38 C38     0.3001     3.9676    -0.2362 C
39 C39    -0.1743     4.6513     0.8876 C
40 C40     0.8256     4.7451    -1.2721 C
41 C41    -0.1421     6.0381     0.9806 C
42 C42     0.8810     6.1336    -1.1977 C
43 C43     0.3902     6.7821    -0.0684 C
44 C44     4.9136    -1.4470    -0.3843 C
45 C45     5.5877    -2.1171     0.6424 C
46 C46     5.6879    -0.9958    -1.4586 C
47 C47     6.9621    -2.3266     0.6114 C
48 C48     7.0651    -1.1867    -1.5064 C
49 C49     7.7043    -1.8575    -0.4681 C
50 C50    -4.3396    -4.1749    -0.4766 C
51 H51    -5.1874    -3.4810    -0.3347 H
52 O52    -4.5529    -5.3726    -0.6193 O
53 F53    -7.6829    -0.3255     1.6621 F
54 F54    -4.9850    -0.3597     1.8434 F
55 F55    -8.9002    -0.8882    -0.7140 F
56 F56    -7.3998    -1.4802    -2.9127 F
57 F57     5.1092    -0.3618    -2.4878 F
58 F58     7.7764    -0.7415    -2.5492 F
59 F59     9.0257    -2.0503    -0.5075 F
60 F60     7.5748    -2.9663     1.6155 F
61 F61     4.9097    -2.5701     1.7080 F
62 F62     1.2978     4.1560    -2.3792 F
63 F63     1.3899     6.8487    -2.2081 F
64 F64     0.4320     8.1152     0.0110 F
65 F65    -0.6047     6.6596     2.0727 F
66 F66    -0.6759     3.9647     1.9305 F
67 F67    -4.7004    -1.5289    -2.7374 F
68 C68     0.3945    -1.8106     2.9112 C
69 C69    -0.1713     0.4430     2.8273 C
70 C70     0.4185    -1.7949     4.3000 C
71 H71     0.6111    -2.7088     2.3447 H
72 C72    -0.1627     0.5366     4.2131 C
73 H73    -0.3958     1.3005     2.2039 H
74 H74     0.6548    -2.7025     4.8442 H
75 H75    -0.3871     1.4852     4.6880 H
76 C76     0.1357    -0.6010     4.9630 C
77 N77     0.1035    -0.7118     2.1920 N
78 H78     0.1479    -0.5578     6.0477 H
@<TRIPOS>BOND
1 1 7 Ar
2 1 9 Ar
3 1 44 1
4 2 12 Ar
5 2 14 Ar
6 2 38 1
7 3 17 Ar
8 3 19 Ar
9 3 32 1
10 4 5 Ar
11 4 8 Ar
12 4 22 Ar
13 5 6 Ar
14 5 24 1
15 6 7 Ar
16 6 29 1
17 7 8 Ar
18 8 31 1
19 9 10 Ar
20 9 13 1
21 10 11 2
22 10 25 1
23 11 12 Ar
24 11 26 1
25 12 13 Ar
26 13 31 1
27 14 15 Ar
28 14 18 Ar
29 15 16 2
30 15 27 1
31 16 17 Ar
32 16 28 1
33 17 18 1
34 18 31 1
35 19 20 1
36 19 23 Ar
37 20 21 Ar
38 20 50 1
39 21 22 Ar
40 21 30 1
41 22 23 Ar
42 23 31 1
43 32 33 Ar
44 32 34 Ar
45 33 35 Ar
46 33 54 1
47 34 36 Ar
48 34 67 1
49 35 37 Ar
50 35 53 1
51 36 37 Ar
52 36 56 1
53 37 55 1
54 38 39 Ar
55 38 40 Ar
56 39 41 Ar
57 39 66 1
58 40 42 Ar
59 40 62 1
60 41 43 Ar
61 41 65 1
62 42 43 Ar
63 42 63 1
64 43 64 1
65 44 45 Ar
66 44 46 Ar
67 45 47 Ar
68 45 61 1
69 46 48 Ar
70 46 57 1
71 47 49 Ar
72 47 60 1
73 48 49 Ar
74 48 58 1
75 49 59 1
76 50 51 1
77 50 52 2
78 68 70 Ar
79 68 71 1
80 68 77 Ar
81 69 72 Ar
82 69 73 1
83 69 77 Ar
84 70 74 1
85 70 76 Ar
86 72 75 1
87 72 76 Ar
88 76 78 1
