# N3R-CH2CH2CO2Me_TD
# Created by GaussView 6.0.16
#

#
#

@<TRIPOS>MOLECULE
Molecule Name
70 74
SMALL
NO_CHARGES


@<TRIPOS>ATOM
1 C1     2.1766     3.2931    -0.0892 C
2 C2    -2.0742     0.9058    -0.3106 C
3 C3     0.4538    -3.2584    -0.2220 C
4 C4     3.8151     0.0720     0.0041 C
5 C5     4.8834     0.8570     0.4925 C
6 C6     4.4689     2.2081     0.4790 C
7 C7     3.1340     2.2586     0.0051 C
8 N8     2.7816     0.9526    -0.2822 N
9 C9     0.8079     3.0849    -0.2126 C
10 C10    -0.2440     4.0591    -0.3991 C
11 C11    -1.4530     3.3889    -0.4567 C
12 C12    -1.1888     1.9764    -0.3109 C
13 N13     0.1774     1.8458    -0.1947 N
14 C14    -1.7482    -0.4684    -0.2550 C
15 C15    -2.7335    -1.5495    -0.3389 C
16 C16    -2.0282    -2.7255    -0.3125 C
17 C17    -0.6172    -2.3575    -0.2201 C
18 N18    -0.4921    -0.9784    -0.1723 N
19 C19     1.8072    -2.8698    -0.1830 C
20 C20     3.0629    -3.5503    -0.2068 C
21 C21     4.0785    -2.5810    -0.1260 C
22 C22     3.4476    -1.3040    -0.0494 C
23 N23     2.1009    -1.5402    -0.0969 N
24 H24     2.0913     0.7406    -0.9917 H
25 H25     0.5649     0.9978     0.1934 H
26 H26     1.3231    -0.8858     0.0089 H
27 H27     0.2269    -4.3187    -0.2652 H
28 H28     2.5207     4.3193    -0.0248 H
29 H29    -3.1258     1.1576    -0.3972 H
30 C30    -4.2163    -1.3479    -0.4004 C
31 H31    -4.4596    -0.5346    -1.0933 H
32 H32    -4.7102    -2.2461    -0.7875 H
33 C33    -4.8177    -1.0095     0.9874 C
34 H34    -4.3010    -0.1382     1.4022 H
35 H35    -4.6827    -1.8505     1.6709 H
36 C36    -6.2938    -0.7117     0.8874 C
37 O37    -7.1934    -1.4354     1.2613 O
38 O38    -6.5046     0.4778     0.2777 O
39 C39    -7.8816     0.8341     0.0757 C
40 H40    -7.8649     1.7872    -0.4546 H
41 H41    -8.3939     0.0758    -0.5229 H
42 H42    -8.3979     0.9429     1.0336 H
43 C43    -2.5496    -4.1276    -0.3664 C
44 H44    -2.3586    -4.6671     0.5709 H
45 H45    -3.6300    -4.1496    -0.5396 H
46 H46    -2.0753    -4.7051    -1.1700 H
47 C47    -2.8240     3.9541    -0.6589 C
48 H48    -3.2869     3.5626    -1.5735 H
49 H49    -3.4904     3.6938     0.1732 H
50 H50    -2.8060     5.0442    -0.7382 H
51 C51     0.0115     5.5282    -0.5292 C
52 H52     0.5233     5.9254     0.3568 H
53 H53     0.6494     5.7493    -1.3942 H
54 H54    -0.9178     6.0907    -0.6512 H
55 C55     5.2667     3.3734     0.9773 C
56 H56     4.7247     4.3148     0.8458 H
57 H57     5.5050     3.2809     2.0453 H
58 H58     6.2210     3.4630     0.4434 H
59 C59     6.1837     0.3573     1.0441 C
60 H60     6.0776    -0.6451     1.4675 H
61 H61     6.9676     0.3108     0.2762 H
62 H62     6.5524     1.0167     1.8376 H
63 C63     5.5513    -2.8513    -0.1810 C
64 H64     6.0958    -2.0116    -0.6227 H
65 H65     5.9800    -3.0361     0.8133 H
66 H66     5.7620    -3.7397    -0.7872 H
67 C67     3.2543    -5.0308    -0.3182 C
68 H68     3.6846    -5.4584     0.5971 H
69 H69     2.3044    -5.5414    -0.5051 H
70 H70     3.9341    -5.2893    -1.1404 H
@<TRIPOS>BOND
1 1 7 Ar
2 1 9 Ar
3 1 28 1
4 2 12 Ar
5 2 14 Ar
6 2 29 1
7 3 17 Ar
8 3 19 Ar
9 3 27 1
10 4 5 Ar
11 4 8 1
12 4 22 Ar
13 5 6 Ar
14 5 59 1
15 6 7 Ar
16 6 55 1
17 7 8 1
18 8 24 1
19 9 10 Ar
20 9 13 1
21 10 11 2
22 10 51 1
23 11 12 Ar
24 11 47 1
25 12 13 Ar
26 13 25 1
27 14 15 1
28 14 18 Ar
29 15 16 2
30 15 30 1
31 16 17 1
32 16 43 1
33 17 18 1
34 19 20 Ar
35 19 23 Ar
36 20 21 Ar
37 20 67 1
38 21 22 Ar
39 21 63 1
40 22 23 Ar
41 23 26 1
42 30 31 1
43 30 32 1
44 30 33 1
45 33 34 1
46 33 35 1
47 33 36 1
48 36 37 2
49 36 38 1
50 38 39 1
51 39 40 1
52 39 41 1
53 39 42 1
54 43 44 1
55 43 45 1
56 43 46 1
57 47 48 1
58 47 49 1
59 47 50 1
60 51 52 1
61 51 53 1
62 51 54 1
63 55 56 1
64 55 57 1
65 55 58 1
66 59 60 1
67 59 61 1
68 59 62 1
69 63 64 1
70 63 65 1
71 63 66 1
72 67 68 1
73 67 69 1
74 67 70 1
