# N4_Br_F_OPT
# Created by GaussView 6.0.16
#

#
#

@<TRIPOS>MOLECULE
Molecule Name
67 74
SMALL
NO_CHARGES


@<TRIPOS>ATOM
1 C1    -3.3903    -0.7388    -0.0673 C
2 C2    -0.0245     2.7721    -0.5822 C
3 C3     3.4101    -0.7140    -0.1325 C
4 C4    -0.7073    -3.0953     0.0258 C
5 C5    -1.7660    -4.0191     0.2438 C
6 C6    -2.9652    -3.3115     0.1956 C
7 C7    -2.6537    -1.9412    -0.0459 C
8 N8    -1.2978    -1.8797    -0.1806 N
9 C9    -2.7916     0.5287    -0.1915 C
10 C10    -3.5047     1.7922    -0.2291 C
11 C11    -2.5656     2.7682    -0.3697 C
12 C12    -1.2682     2.1043    -0.4174 C
13 N13    -1.4320     0.7578    -0.2956 N
14 C14     1.2406     2.1683    -0.5795 C
15 C15     2.5267     2.7479    -0.8427 C
16 C16     3.4827     1.7699    -0.7108 C
17 C17     2.8348     0.5397    -0.3683 C
18 N18     1.4747     0.8326    -0.3228 N
19 C19     2.6482    -1.8941     0.0220 C
20 C20     2.9142    -3.1532     0.6128 C
21 C21     1.7245    -3.8890     0.6335 C
22 C22     0.7105    -3.0991     0.0514 C
23 N23     1.3160    -1.9150    -0.3299 N
24 H24    -1.6459    -5.0807     0.4105 H
25 H25    -4.5779     1.9134    -0.1648 H
26 H26    -2.7336     3.8348    -0.4226 H
27 H27     2.6913     3.7771    -1.1265 H
28 H28     4.5468     1.8739    -0.8706 H
29 H29     3.8611    -3.4479     1.0437 H
30 H30     1.5743    -4.8548     1.0963 H
31 C31    -0.0485     4.2465    -0.7861 C
32 C32    -0.6538     4.8256    -1.9064 C
33 C33     0.5396     5.1232     0.1318 C
34 C34    -0.6878     6.2023    -2.1017 C
35 C35     0.5305     6.5024    -0.0486 C
36 C36    -0.0892     7.0444    -1.1698 C
37 C37     4.8865    -0.8078     0.0118 C
38 C38     5.6716    -1.4072    -0.9870 C
39 C39     5.5359    -0.3186     1.1580 C
40 C40     7.0605    -1.5288    -0.8518 C
41 C41     6.9264    -0.4122     1.3046 C
42 C42     7.6883    -1.0248     0.2977 C
43 C43    -4.8685    -0.8326     0.0919 C
44 C44    -5.6903    -1.1470    -1.0000 C
45 C45    -5.4744    -0.6271     1.3403 C
46 C46    -7.0800    -1.2580    -0.8607 C
47 C47    -6.8629    -0.7231     1.5018 C
48 C48    -7.6661    -1.0417     0.3958 C
49 H49    -0.8733    -0.9474    -0.2292 H
50 H50     0.7708     0.2746     0.1412 H
51 H51    -3.9592    -3.7148     0.3313 H
52 H52     0.9534    -1.3287    -1.0707 H
53 F53    -0.1086     8.3683    -1.3517 F
54 F54     1.1037     7.3095     0.8534 F
55 F55     1.1373     4.6426     1.2323 F
56 F56    -1.2272     4.0495    -2.8372 F
57 F57    -1.2777     6.7205    -3.1866 F
58 Br58    -4.3572    -0.2204     2.8190 Br
59 Br59    -7.6462    -0.4314     3.2006 Br
60 Br60    -9.5445    -1.1811     0.5996 Br
61 Br61    -8.1545    -1.6918    -2.3574 Br
62 Br62    -4.8645    -1.4061    -2.6893 Br
63 Br63     4.4806     0.4555     2.5334 Br
64 Br64     7.7700     0.2754     2.8535 Br
65 Br65     9.5665    -1.1728     0.4906 Br
66 Br66     8.0828    -2.3590    -2.2115 Br
67 Br67     4.8065    -2.0280    -2.5598 Br
@<TRIPOS>BOND
1 1 7 Ar
2 1 9 Ar
3 1 43 1
4 2 12 Ar
5 2 14 Ar
6 2 31 1
7 3 17 Ar
8 3 19 Ar
9 3 37 1
10 4 5 Ar
11 4 8 Ar
12 4 22 Ar
13 5 6 Ar
14 5 24 1
15 6 7 Ar
16 6 51 1
17 7 8 Ar
18 8 49 1
19 9 10 1
20 9 13 1
21 10 11 2
22 10 25 1
23 11 12 1
24 11 26 1
25 12 13 Ar
26 14 15 Ar
27 14 18 Ar
28 15 16 2
29 15 27 1
30 16 17 Ar
31 16 28 1
32 17 18 1
33 18 50 1
34 19 20 Ar
35 19 23 Ar
36 20 21 Ar
37 20 29 1
38 21 22 Ar
39 21 30 1
40 22 23 1
41 23 52 1
42 31 32 Ar
43 31 33 Ar
44 32 34 Ar
45 32 56 1
46 33 35 Ar
47 33 55 1
48 34 36 Ar
49 34 57 1
50 35 36 Ar
51 35 54 1
52 36 53 1
53 37 38 Ar
54 37 39 Ar
55 38 40 Ar
56 38 67 1
57 39 41 Ar
58 39 63 1
59 40 42 Ar
60 40 66 1
61 41 42 Ar
62 41 64 1
63 42 65 1
64 43 44 Ar
65 43 45 Ar
66 44 46 Ar
67 44 62 1
68 45 47 Ar
69 45 58 1
70 46 48 Ar
71 46 61 1
72 47 48 Ar
73 47 59 1
74 48 60 1
