# 17_H3
# Created by GaussView 6.0.16
#

#
#

@<TRIPOS>MOLECULE
Molecule Name
76 83
SMALL
NO_CHARGES


@<TRIPOS>ATOM
1 C1    -3.4638    -0.9420    -0.0243 C
2 C2     0.0507     2.4988     0.1546 C
3 C3     3.3868    -1.0648    -0.0754 C
4 C4    -0.7670    -3.3386    -0.0634 C
5 C5    -1.7814    -4.1611    -0.6049 C
6 C6    -2.9653    -3.4253    -0.6262 C
7 C7    -2.7016    -2.1348    -0.0929 C
8 N8    -1.3696    -2.1361     0.2602 N
9 C9    -2.8661     0.3324     0.0874 C
10 C10    -3.4785     1.5922     0.3786 C
11 C11    -2.4952     2.5547     0.4382 C
12 C12    -1.2319     1.9278     0.1888 C
13 N13    -1.5035     0.5880    -0.0022 N
14 C14     1.2910     1.8215     0.0554 C
15 C15     2.5919     2.4769     0.0559 C
16 C16     3.5293     1.4909    -0.0228 C
17 C17     2.8060     0.2292    -0.0639 C
18 N18     1.4497     0.4695    -0.0262 N
19 C19     2.6150    -2.2463    -0.0298 C
20 C20     2.8902    -3.6380    -0.2253 C
21 C21     1.6796    -4.3158    -0.2356 C
22 C22     0.6450    -3.3550    -0.0399 C
23 N23     1.2630    -2.1461     0.1198 N
24 H24    -1.6323    -5.1503    -1.0148 H
25 H25    -3.9049    -3.7421    -1.0581 H
26 H26    -4.5328     1.7349     0.5685 H
27 H27    -2.6326     3.5993     0.6787 H
28 H28     2.7678     3.5426     0.1174 H
29 H29     4.6037     1.6122    -0.0290 H
30 H30     3.8703    -4.0734    -0.3682 H
31 H31     1.5317    -5.3788    -0.3655 H
32 H32    -0.9988    -1.5053     0.9605 H
33 H33     0.8571    -1.2036     0.1007 H
34 H34    -0.8203    -0.0279    -0.4210 H
35 C35     4.8541    -1.1895    -0.2283 C
36 C36     5.5063    -0.7332    -1.3724 C
37 N37     5.6002    -1.7808     0.7580 N
38 C38     6.8796    -0.8979    -1.5261 C
39 H39     4.9087    -0.2695    -2.1473 H
40 C40     6.9371    -1.9554     0.6154 C
41 C41     7.6038    -1.5318    -0.5171 C
42 H42     7.3759    -0.5479    -2.4251 H
43 H43     7.4438    -2.4355     1.4422 H
44 H44     8.6724    -1.6933    -0.5930 H
45 C45    -4.9272    -1.0140    -0.1854 C
46 C46    -5.5839    -0.3155    -1.2004 C
47 N47    -5.6773    -1.8038     0.6490 N
48 C48    -6.9547    -0.4484    -1.3907 C
49 H49    -4.9885     0.3044    -1.8583 H
50 C50    -7.0122    -1.9557     0.4609 C
51 C51    -7.6783    -1.2986    -0.5534 C
52 H52    -7.4491     0.0886    -2.1932 H
53 H53    -7.5167    -2.6075     1.1636 H
54 H54    -8.7450    -1.4478    -0.6715 H
55 C55     0.1009     3.9827     0.3174 C
56 C56     0.1163     4.5791     1.5732 C
57 N57     0.1399     4.7834    -0.7911 N
58 C58     0.1721     5.9659     1.7027 C
59 H59     0.0909     3.9353     2.4441 H
60 C60     0.1976     6.1318    -0.6824 C
61 C61     0.2146     6.7520     0.5534 C
62 H62     0.1853     6.4234     2.6862 H
63 H63     0.2243     6.6869    -1.6106 H
64 H64     0.2623     7.8333     0.6017 H
65 C65     0.1204     4.1792    -2.1431 C
66 H66     0.9896     3.5326    -2.2624 H
67 H67    -0.7948     3.5990    -2.2610 H
68 H68     0.1494     4.9780    -2.8828 H
69 C69     4.9791    -2.2121     2.0337 C
70 H70     4.2737    -1.4498     2.3615 H
71 H71     4.4614    -3.1614     1.8957 H
72 H72     5.7674    -2.3256     2.7760 H
73 C73    -5.0793    -2.4724     1.8286 C
74 H74    -4.6858    -3.4503     1.5483 H
75 H75    -4.2783    -1.8496     2.2224 H
76 H76    -5.8586    -2.5845     2.5802 H
@<TRIPOS>BOND
1 1 7 Ar
2 1 9 Ar
3 1 45 1
4 2 12 Ar
5 2 14 Ar
6 2 55 1
7 3 17 Ar
8 3 19 Ar
9 3 35 1
10 4 5 Ar
11 4 8 1
12 4 22 Ar
13 5 6 Ar
14 5 24 1
15 6 7 Ar
16 6 25 1
17 7 8 Ar
18 8 32 1
19 9 10 Ar
20 9 13 1
21 10 11 2
22 10 26 1
23 11 12 Ar
24 11 27 1
25 12 13 Ar
26 13 34 1
27 14 15 1
28 14 18 Ar
29 15 16 2
30 15 28 1
31 16 17 1
32 16 29 1
33 17 18 Ar
34 19 20 Ar
35 19 23 Ar
36 20 21 Ar
37 20 30 1
38 21 22 Ar
39 21 31 1
40 22 23 Ar
41 23 33 1
42 35 36 Ar
43 35 37 Ar
44 36 38 Ar
45 36 39 1
46 37 40 Ar
47 37 69 1
48 38 41 Ar
49 38 42 1
50 40 41 2
51 40 43 1
52 41 44 1
53 45 46 Ar
54 45 47 Ar
55 46 48 Ar
56 46 49 1
57 47 50 Ar
58 47 73 1
59 48 51 Ar
60 48 52 1
61 50 51 2
62 50 53 1
63 51 54 1
64 55 56 Ar
65 55 57 Ar
66 56 58 Ar
67 56 59 1
68 57 60 Ar
69 57 65 1
70 58 61 Ar
71 58 62 1
72 60 61 2
73 60 63 1
74 61 64 1
75 65 66 1
76 65 67 1
77 65 68 1
78 69 70 1
79 69 71 1
80 69 72 1
81 73 74 1
82 73 75 1
83 73 76 1
