# N4_Br_OMe_OPT
# Created by GaussView 6.0.16
#

#
#

@<TRIPOS>MOLECULE
Molecule Name
87 94
SMALL
NO_CHARGES


@<TRIPOS>ATOM
1 C1    -3.3706    -1.1094    -0.1004 C
2 C2    -0.0086     2.4363    -0.3971 C
3 C3     3.4243    -1.0708    -0.1596 C
4 C4    -0.6847    -3.4674    -0.1232 C
5 C5    -1.7436    -4.4017     0.0439 C
6 C6    -2.9432    -3.6927     0.0356 C
7 C7    -2.6325    -2.3107    -0.1276 C
8 N8    -1.2763    -2.2417    -0.2566 N
9 C9    -2.7709     0.1636    -0.1611 C
10 C10    -3.4871     1.4262    -0.1874 C
11 C11    -2.5482     2.4094    -0.2730 C
12 C12    -1.2470     1.7519    -0.2919 C
13 N13    -1.4100     0.3986    -0.2152 N
14 C14     1.2532     1.8329    -0.4401 C
15 C15     2.5429     2.4378    -0.6014 C
16 C16     3.5001     1.4531    -0.5324 C
17 C17     2.8485     0.1945    -0.3238 C
18 N18     1.4863     0.4767    -0.3038 N
19 C19     2.6697    -2.2627    -0.0846 C
20 C20     2.9407    -3.5525     0.4336 C
21 C21     1.7522    -4.2912     0.4197 C
22 C22     0.7328    -3.4724    -0.1101 C
23 N23     1.3349    -2.2672    -0.4305 N
24 H24    -1.6236    -5.4714     0.1474 H
25 H25    -4.5626     1.5409    -0.1587 H
26 H26    -2.7116     3.4767    -0.3166 H
27 H27     2.7047     3.4915    -0.7739 H
28 H28     4.5688     1.5748    -0.6433 H
29 H29     3.8888    -3.8695     0.8457 H
30 H30     1.6069    -5.2815     0.8294 H
31 C31    -0.0475     3.9285    -0.4648 C
32 C32     0.2071     4.5729    -1.6875 C
33 C33    -0.3934     4.7117     0.6538 C
34 C34     0.0927     5.9628    -1.8150 C
35 C35    -0.5066     6.1074     0.5312 C
36 C36    -0.2339     6.7326    -0.6922 C
37 C37     4.8973    -1.1615     0.0182 C
38 C38     5.7216    -1.6325    -1.0158 C
39 C39     5.5032    -0.7929     1.2305 C
40 C40     7.1091    -1.7381    -0.8555 C
41 C41     6.8904    -0.8763     1.4084 C
42 C42     7.6936    -1.3543     0.3614 C
43 C43    -4.8499    -1.2124     0.0359 C
44 C44    -5.6553    -1.5263    -1.0689 C
45 C45    -5.4760    -1.0194     1.2771 C
46 C46    -7.0455    -1.6524    -0.9489 C
47 C47    -6.8656    -1.1301     1.4189 C
48 C48    -7.6508    -1.4508     0.3009 C
49 H49    -0.8525    -1.3081    -0.2488 H
50 H50     0.7748    -0.1139     0.1046 H
51 H51    -3.9371    -4.1037     0.1473 H
52 H52     0.9690    -1.6462    -1.1411 H
53 C53    -1.5370     8.6686    -0.9523 C
54 H54    -1.9984     8.3178    -1.8838 H
55 H55    -1.3948     9.7508    -1.0032 H
56 H56    -2.1838     8.4247    -0.1024 H
57 C57     0.1617     7.2042     2.4947 C
58 H58    -0.2790     7.8169     3.2851 H
59 H59     0.9448     7.7783     1.9837 H
60 H60     0.5991     6.3023     2.9402 H
61 C61     0.2145     3.2784     2.4876 C
62 H62     0.0789     3.3881     3.5673 H
63 H63     1.2516     3.5162     2.2264 H
64 H64    -0.0027     2.2443     2.2053 H
65 C65    -0.4896     3.5674    -3.6976 C
66 H66    -0.8792     4.5003    -4.1190 H
67 H67    -1.2991     3.0161    -3.2039 H
68 H68    -0.0670     2.9529    -4.4961 H
69 C69     1.6251     6.8192    -3.3746 C
70 H70     2.2000     5.8863    -3.4026 H
71 H71     2.0824     7.5165    -2.6617 H
72 H72     1.6191     7.2710    -4.3696 H
73 O73     0.2583     6.5691    -3.0354 O
74 O74    -0.2346     8.0988    -0.7847 O
75 O75    -0.8997     6.8759     1.5973 O
76 O76    -0.7015     4.1949     1.8819 O
77 O77     0.5803     3.8269    -2.7808 O
78 Br78    -7.6750    -0.8577     3.1090 Br
79 Br79    -9.5303    -1.6135     0.4793 Br
80 Br80    -8.0965    -2.0865    -2.4628 Br
81 Br81    -4.8089    -1.7607    -2.7523 Br
82 Br82    -4.3851    -0.6116     2.7751 Br
83 Br83     4.3891    -0.1972     2.6486 Br
84 Br84     7.6743    -0.3535     3.0509 Br
85 Br85     9.5691    -1.4842     0.5913 Br
86 Br86     8.1865    -2.3849    -2.2713 Br
87 Br87     4.9047    -2.1058    -2.6629 Br
@<TRIPOS>BOND
1 1 7 Ar
2 1 9 Ar
3 1 43 1
4 2 12 Ar
5 2 14 Ar
6 2 31 1
7 3 17 Ar
8 3 19 Ar
9 3 37 1
10 4 5 Ar
11 4 8 Ar
12 4 22 Ar
13 5 6 Ar
14 5 24 1
15 6 7 Ar
16 6 51 1
17 7 8 Ar
18 8 49 1
19 9 10 1
20 9 13 1
21 10 11 2
22 10 25 1
23 11 12 1
24 11 26 1
25 12 13 Ar
26 14 15 Ar
27 14 18 1
28 15 16 2
29 15 27 1
30 16 17 Ar
31 16 28 1
32 17 18 1
33 18 50 1
34 19 20 Ar
35 19 23 Ar
36 20 21 Ar
37 20 29 1
38 21 22 Ar
39 21 30 1
40 22 23 1
41 23 52 1
42 31 32 Ar
43 31 33 Ar
44 32 34 Ar
45 32 77 1
46 33 35 Ar
47 33 76 1
48 34 36 Ar
49 34 73 1
50 35 36 Ar
51 35 75 1
52 36 74 1
53 37 38 Ar
54 37 39 Ar
55 38 40 Ar
56 38 87 1
57 39 41 Ar
58 39 83 1
59 40 42 Ar
60 40 86 1
61 41 42 Ar
62 41 84 1
63 42 85 1
64 43 44 Ar
65 43 45 Ar
66 44 46 Ar
67 44 81 1
68 45 47 Ar
69 45 82 1
70 46 48 Ar
71 46 80 1
72 47 48 Ar
73 47 78 1
74 48 79 1
75 53 54 1
76 53 55 1
77 53 56 1
78 53 74 1
79 57 58 1
80 57 59 1
81 57 60 1
82 57 75 1
83 61 62 1
84 61 63 1
85 61 64 1
86 61 76 1
87 65 66 1
88 65 67 1
89 65 68 1
90 65 77 1
91 69 70 1
92 69 71 1
93 69 72 1
94 69 73 1
