# N4_Cl_Cl_OPT
# Created by GaussView 6.0.16
#

#
#

@<TRIPOS>MOLECULE
Molecule Name
67 74
SMALL
NO_CHARGES


@<TRIPOS>ATOM
1 C1    -3.3716    -1.6022    -0.0827 C
2 C2    -0.0215     1.9539    -0.1177 C
3 C3     3.4417    -1.5236    -0.1580 C
4 C4    -0.6653    -3.9313    -0.2386 C
5 C5    -1.7166    -4.8834    -0.1304 C
6 C6    -2.9218    -4.1859    -0.1031 C
7 C7    -2.6226    -2.7931    -0.1827 C
8 N8    -1.2657    -2.7051    -0.2977 N
9 C9    -2.7805    -0.3246    -0.0535 C
10 C10    -3.4997     0.9359     0.0024 C
11 C11    -2.5619     1.9241    -0.0088 C
12 C12    -1.2613     1.2692    -0.0666 C
13 N13    -1.4197    -0.0828    -0.0873 N
14 C14     1.2484     1.3735    -0.1868 C
15 C15     2.5285     2.0018    -0.3397 C
16 C16     3.4944     1.0235    -0.3544 C
17 C17     2.8579    -0.2523    -0.2086 C
18 N18     1.4938     0.0164    -0.1364 N
19 C19     2.6892    -2.7204    -0.1547 C
20 C20     2.9694    -4.0443     0.2654 C
21 C21     1.7810    -4.7808     0.2223 C
22 C22     0.7524    -3.9278    -0.2305 C
23 N23     1.3465    -2.7015    -0.4720 N
24 H24    -1.5873    -5.9562    -0.0904 H
25 H25    -4.5755     1.0462     0.0341 H
26 H26    -2.7306     2.9920     0.0198 H
27 H27     2.6817     3.0660    -0.4492 H
28 H28     4.5587     1.1628    -0.4834 H
29 H29     3.9251    -4.3894     0.6348 H
30 H30     1.6436    -5.7987     0.5608 H
31 C31    -0.0597     3.4483    -0.1091 C
32 C32    -0.1793     4.1769    -1.3018 C
33 C33     0.0252     4.1630     1.0952 C
34 C34    -0.2148     5.5788    -1.3030 C
35 C35    -0.0086     5.5645     1.1192 C
36 C36    -0.1286     6.2725    -0.0863 C
37 C37     4.9222    -1.6218    -0.0429 C
38 C38     5.7122    -1.9484    -1.1567 C
39 C39     5.5679    -1.4048     1.1853 C
40 C40     7.1060    -2.0607    -1.0579 C
41 C41     6.9615    -1.5033     1.3049 C
42 C42     7.7302    -1.8351     0.1787 C
43 C43    -4.8537    -1.7184     0.0261 C
44 C44    -5.6589    -1.7705    -1.1214 C
45 C45    -5.4812    -1.7892     1.2791 C
46 C46    -7.0533    -1.8870    -1.0319 C
47 C47    -6.8737    -1.9078     1.3927 C
48 C48    -7.6600    -1.9563     0.2315 C
49 H49    -0.8497    -1.7692    -0.2325 H
50 H50     0.7977    -0.6080     0.2471 H
51 H51    -3.9128    -4.6104    -0.0199 H
52 H52     0.9697    -2.0368    -1.1360 H
53 Cl53    -9.3844    -2.1049     0.3583 Cl
54 Cl54    -7.6243    -1.9962     2.9554 Cl
55 Cl55    -4.4986    -1.7313     2.7153 Cl
56 Cl56    -4.8981    -1.6788    -2.6853 Cl
57 Cl57    -8.0252    -1.9436    -2.4686 Cl
58 Cl58    -0.3642     6.4538    -2.7950 Cl
59 Cl59    -0.1687     8.0076    -0.0727 Cl
60 Cl60     0.0997     6.4216     2.6249 Cl
61 Cl61     0.1717     3.2776     2.5879 Cl
62 Cl62    -0.2857     3.3100    -2.8086 Cl
63 Cl63     4.6083    -1.0287     2.5890 Cl
64 Cl64     7.7349    -1.2256     2.8335 Cl
65 Cl65     9.4547    -1.9667     0.3153 Cl
66 Cl66     8.0575    -2.4650    -2.4514 Cl
67 Cl67     4.9360    -2.1925    -2.6970 Cl
@<TRIPOS>BOND
1 1 7 Ar
2 1 9 Ar
3 1 43 1
4 2 12 Ar
5 2 14 Ar
6 2 31 1
7 3 17 Ar
8 3 19 Ar
9 3 37 1
10 4 5 Ar
11 4 8 Ar
12 4 22 Ar
13 5 6 Ar
14 5 24 1
15 6 7 Ar
16 6 51 1
17 7 8 Ar
18 8 49 1
19 9 10 1
20 9 13 1
21 10 11 2
22 10 25 1
23 11 12 1
24 11 26 1
25 12 13 Ar
26 14 15 Ar
27 14 18 Ar
28 15 16 2
29 15 27 1
30 16 17 Ar
31 16 28 1
32 17 18 1
33 18 50 1
34 19 20 Ar
35 19 23 Ar
36 20 21 Ar
37 20 29 1
38 21 22 Ar
39 21 30 1
40 22 23 1
41 23 52 1
42 31 32 Ar
43 31 33 Ar
44 32 34 Ar
45 32 62 1
46 33 35 Ar
47 33 61 1
48 34 36 Ar
49 34 58 1
50 35 36 Ar
51 35 60 1
52 36 59 1
53 37 38 Ar
54 37 39 Ar
55 38 40 Ar
56 38 67 1
57 39 41 Ar
58 39 63 1
59 40 42 Ar
60 40 66 1
61 41 42 Ar
62 41 64 1
63 42 65 1
64 43 44 Ar
65 43 45 Ar
66 44 46 Ar
67 44 56 1
68 45 47 Ar
69 45 55 1
70 46 48 Ar
71 46 57 1
72 47 48 Ar
73 47 54 1
74 48 53 1
