# N4_Cl_F_OPT
# Created by GaussView 6.0.16
#

#
#

@<TRIPOS>MOLECULE
Molecule Name
67 74
SMALL
NO_CHARGES


@<TRIPOS>ATOM
1 C1    -3.3830    -1.1254    -0.1208 C
2 C2    -0.0277     2.4353    -0.1424 C
3 C3     3.4221    -1.0663    -0.1835 C
4 C4    -0.6882    -3.4615    -0.3222 C
5 C5    -1.7412    -4.4107    -0.2100 C
6 C6    -2.9440    -3.7095    -0.1715 C
7 C7    -2.6408    -2.3177    -0.2489 C
8 N8    -1.2850    -2.2331    -0.3779 N
9 C9    -2.7880     0.1497    -0.0828 C
10 C10    -3.5064     1.4064     0.0242 C
11 C11    -2.5708     2.3953     0.0164 C
12 C12    -1.2694     1.7465    -0.0930 C
13 N13    -1.4279     0.3946    -0.1441 N
14 C14     1.2407     1.8426    -0.2086 C
15 C15     2.5256     2.4609    -0.3701 C
16 C16     3.4854     1.4778    -0.3794 C
17 C17     2.8418     0.2069    -0.2270 C
18 N18     1.4797     0.4849    -0.1500 N
19 C19     2.6675    -2.2612    -0.1969 C
20 C20     2.9400    -3.5892     0.2146 C
21 C21     1.7501    -4.3220     0.1521 C
22 C22     0.7291    -3.4621    -0.3049 C
23 N23     1.3291    -2.2357    -0.5297 N
24 H24    -1.6147    -5.4838    -0.1716 H
25 H25    -4.5810     1.5144     0.0897 H
26 H26    -2.7438     3.4596     0.0931 H
27 H27     2.6864     3.5220    -0.4946 H
28 H28     4.5501     1.6094    -0.5128 H
29 H29     3.8907    -3.9400     0.5915 H
30 H30     1.6059    -5.3422     0.4804 H
31 C31    -0.0567     3.9240    -0.1306 C
32 C32    -0.6280     4.6579    -1.1750 C
33 C33     0.4906     4.6579     0.9268 C
34 C34    -0.6684     6.0481    -1.1677 C
35 C35     0.4728     6.0485     0.9511 C
36 C36    -0.1126     6.7463    -0.1003 C
37 C37     4.9020    -1.1702    -0.0659 C
38 C38     5.6923    -1.4993    -1.1788 C
39 C39     5.5467    -0.9590     1.1640 C
40 C40     7.0850    -1.6212    -1.0774 C
41 C41     6.9395    -1.0666     1.2859 C
42 C42     7.7083    -1.4018     0.1607 C
43 C43    -4.8622    -1.2386     0.0267 C
44 C44    -5.7031    -1.2360    -1.0959 C
45 C45    -5.4507    -1.3603     1.2946 C
46 C46    -7.0950    -1.3469    -0.9669 C
47 C47    -6.8397    -1.4753     1.4476 C
48 C48    -7.6622    -1.4678     0.3108 C
49 H49    -0.8644    -1.2997    -0.3106 H
50 H50     0.7745    -0.1392     0.2174 H
51 H51    -3.9357    -4.1307    -0.0798 H
52 H52     0.9611    -1.5616    -1.1890 H
53 Cl53    -9.3833    -1.6078     0.4852 Cl
54 Cl54    -7.5413    -1.6258     3.0281 Cl
55 Cl55    -4.4239    -1.3660     2.7007 Cl
56 Cl56    -4.9907    -1.0839    -2.6775 Cl
57 Cl57    -8.1124    -1.3342    -2.3726 Cl
58 Cl58     4.5872    -0.5803     2.5668 Cl
59 Cl59     7.7118    -0.7970     2.8165 Cl
60 Cl60     9.4315    -1.5454     0.3006 Cl
61 Cl61     8.0365    -2.0302    -2.4697 Cl
62 Cl62     4.9181    -1.7334    -2.7218 Cl
63 F63    -0.1391     8.0824    -0.0862 F
64 F64     1.0042     6.7175     1.9822 F
65 F65     1.0556     4.0227     1.9643 F
66 F66    -1.1611     4.0229    -2.2286 F
67 F67    -1.2235     6.7178    -2.1857 F
@<TRIPOS>BOND
1 1 7 Ar
2 1 9 Ar
3 1 43 1
4 2 12 Ar
5 2 14 Ar
6 2 31 1
7 3 17 Ar
8 3 19 Ar
9 3 37 1
10 4 5 Ar
11 4 8 Ar
12 4 22 Ar
13 5 6 Ar
14 5 24 1
15 6 7 Ar
16 6 51 1
17 7 8 Ar
18 8 49 1
19 9 10 1
20 9 13 1
21 10 11 2
22 10 25 1
23 11 12 1
24 11 26 1
25 12 13 Ar
26 14 15 Ar
27 14 18 Ar
28 15 16 2
29 15 27 1
30 16 17 Ar
31 16 28 1
32 17 18 1
33 18 50 1
34 19 20 Ar
35 19 23 Ar
36 20 21 Ar
37 20 29 1
38 21 22 Ar
39 21 30 1
40 22 23 1
41 23 52 1
42 31 32 Ar
43 31 33 Ar
44 32 34 Ar
45 32 66 1
46 33 35 Ar
47 33 65 1
48 34 36 Ar
49 34 67 1
50 35 36 Ar
51 35 64 1
52 36 63 1
53 37 38 Ar
54 37 39 Ar
55 38 40 Ar
56 38 62 1
57 39 41 Ar
58 39 58 1
59 40 42 Ar
60 40 61 1
61 41 42 Ar
62 41 59 1
63 42 60 1
64 43 44 Ar
65 43 45 Ar
66 44 46 Ar
67 44 56 1
68 45 47 Ar
69 45 55 1
70 46 48 Ar
71 46 57 1
72 47 48 Ar
73 47 54 1
74 48 53 1
