# N4_Cl_OMe_OPT
# Created by GaussView 6.0.16
#

#
#

@<TRIPOS>MOLECULE
Molecule Name
87 94
SMALL
NO_CHARGES


@<TRIPOS>ATOM
1 C1    -3.3820    -1.6009    -0.0956 C
2 C2    -0.0218     1.9549    -0.0502 C
3 C3     3.4291    -1.5444    -0.1390 C
4 C4    -0.6847    -3.9385    -0.2812 C
5 C5    -1.7416    -4.8877    -0.2058 C
6 C6    -2.9442    -4.1856    -0.1740 C
7 C7    -2.6387    -2.7926    -0.2173 C
8 N8    -1.2798    -2.7082    -0.3163 N
9 C9    -2.7846    -0.3258    -0.0339 C
10 C10    -3.4996     0.9350     0.0540 C
11 C11    -2.5576     1.9200     0.0702 C
12 C12    -1.2583     1.2643    -0.0074 C
13 N13    -1.4240    -0.0885    -0.0609 N
14 C14     1.2415     1.3625    -0.1259 C
15 C15     2.5247     1.9869    -0.2704 C
16 C16     3.4881     1.0059    -0.2996 C
17 C17     2.8474    -0.2701    -0.1707 C
18 N18     1.4857     0.0018    -0.0942 N
19 C19     2.6733    -2.7395    -0.1562 C
20 C20     2.9481    -4.0728     0.2366 C
21 C21     1.7576    -4.8055     0.1727 C
22 C22     0.7327    -3.9410    -0.2655 C
23 N23     1.3320    -2.7108    -0.4774 N
24 H24    -1.6175    -5.9618    -0.1902 H
25 H25    -4.5752     1.0478     0.0929 H
26 H26    -2.7175     2.9868     0.1400 H
27 H27     2.6763     3.0520    -0.3704 H
28 H28     4.5528     1.1426    -0.4286 H
29 H29     3.9017    -4.4291     0.6011 H
30 H30     1.6168    -5.8302     0.4886 H
31 C31    -0.0536     3.4491    -0.0275 C
32 C32    -0.0711     4.1817    -1.2215 C
33 C33    -0.0846     4.1385     1.1916 C
34 C34    -0.1058     5.5863    -1.2096 C
35 C35    -0.1214     5.5384     1.2199 C
36 C36    -0.1455     6.2693     0.0195 C
37 C37     4.9089    -1.6472    -0.0299 C
38 C38     5.6936    -1.9831    -1.1454 C
39 C39     5.5635    -1.4241     1.1931 C
40 C40     7.0874    -2.1001    -1.0530 C
41 C41     6.9575    -1.5255     1.3057 C
42 C42     7.7193    -1.8679     0.1782 C
43 C43    -4.8657    -1.7082    -0.0040 C
44 C44    -5.6639    -1.6629    -1.1569 C
45 C45    -5.5043    -1.8614     1.2361 C
46 C46    -7.0606    -1.7617    -1.0849 C
47 C47    -6.8994    -1.9649     1.3322 C
48 C48    -7.6777    -1.9141     0.1659 C
49 H49    -0.8609    -1.7752    -0.2261 H
50 H50     0.7867    -0.6271     0.2762 H
51 H51    -3.9378    -4.6076    -0.1103 H
52 H52     0.9590    -2.0298    -1.1266 H
53 Cl53    -9.4060    -2.0378     0.2708 Cl
54 Cl54    -7.6636    -2.1524     2.8798 Cl
55 Cl55    -4.5329    -1.9191     2.6799 Cl
56 Cl56    -4.8905    -1.4731    -2.7059 Cl
57 Cl57    -8.0236    -1.6950    -2.5278 Cl
58 Cl58     4.6143    -1.0371     2.6014 Cl
59 Cl59     7.7409    -1.2393     2.8283 Cl
60 Cl60     9.4446    -2.0043     0.3065 Cl
61 Cl61     8.0309    -2.5170    -2.4490 Cl
62 Cl62     4.9109    -2.2304    -2.6820 Cl
63 C63     0.6964     8.4337    -0.5488 C
64 H64     0.6226     9.4248    -0.0936 H
65 H65     0.4885     8.5074    -1.6191 H
66 H66     1.7098     8.0442    -0.3915 H
67 C67    -1.3897     6.3511     3.0180 C
68 H68    -2.0423     6.9663     2.3865 H
69 H69    -1.2313     6.8557     3.9744 H
70 H70    -1.8567     5.3748     3.1925 H
71 C71     1.0848     3.4325     3.1168 C
72 H72     1.3511     4.4483     3.4252 H
73 H73     1.9047     2.9934     2.5345 H
74 H74     0.9002     2.8161     3.9998 H
75 C75    -1.2708     3.4790    -3.1299 C
76 H76    -1.5908     4.4911    -3.3989 H
77 H77    -2.0503     2.9902    -2.5343 H
78 H78    -1.0900     2.8965    -4.0362 H
79 C79     0.9716     6.2139    -3.2269 C
80 H80     1.8756     6.5374    -2.6959 H
81 H81     0.7845     6.8870    -4.0667 H
82 H82     1.1110     5.1934    -3.5928 H
83 O83    -0.1798     6.3105    -2.3762 O
84 O84    -0.2730     7.6230     0.1208 O
85 O85    -0.0976     6.2018     2.4204 O
86 O86    -0.1328     3.4238     2.3627 O
87 O87    -0.0269     3.5002    -2.4155 O
@<TRIPOS>BOND
1 1 7 Ar
2 1 9 Ar
3 1 43 1
4 2 12 Ar
5 2 14 Ar
6 2 31 1
7 3 17 Ar
8 3 19 Ar
9 3 37 1
10 4 5 Ar
11 4 8 Ar
12 4 22 Ar
13 5 6 Ar
14 5 24 1
15 6 7 Ar
16 6 51 1
17 7 8 Ar
18 8 49 1
19 9 10 1
20 9 13 Ar
21 10 11 2
22 10 25 1
23 11 12 1
24 11 26 1
25 12 13 Ar
26 14 15 Ar
27 14 18 1
28 15 16 2
29 15 27 1
30 16 17 Ar
31 16 28 1
32 17 18 1
33 18 50 1
34 19 20 Ar
35 19 23 Ar
36 20 21 Ar
37 20 29 1
38 21 22 Ar
39 21 30 1
40 22 23 1
41 23 52 1
42 31 32 Ar
43 31 33 Ar
44 32 34 Ar
45 32 87 1
46 33 35 Ar
47 33 86 1
48 34 36 Ar
49 34 83 1
50 35 36 Ar
51 35 85 1
52 36 84 1
53 37 38 Ar
54 37 39 Ar
55 38 40 Ar
56 38 62 1
57 39 41 Ar
58 39 58 1
59 40 42 Ar
60 40 61 1
61 41 42 Ar
62 41 59 1
63 42 60 1
64 43 44 Ar
65 43 45 Ar
66 44 46 Ar
67 44 56 1
68 45 47 Ar
69 45 55 1
70 46 48 Ar
71 46 57 1
72 47 48 Ar
73 47 54 1
74 48 53 1
75 63 64 1
76 63 65 1
77 63 66 1
78 63 84 1
79 67 68 1
80 67 69 1
81 67 70 1
82 67 85 1
83 71 72 1
84 71 73 1
85 71 74 1
86 71 86 1
87 75 76 1
88 75 77 1
89 75 78 1
90 75 87 1
91 79 80 1
92 79 81 1
93 79 82 1
94 79 83 1
