# N4_Me_F_OPT
# Created by GaussView 6.0.16
#

#
#

@<TRIPOS>MOLECULE
Molecule Name
97 104
SMALL
NO_CHARGES


@<TRIPOS>ATOM
1 C1    -3.4036    -1.3821    -0.0475 C
2 C2    -0.0111     2.1603    -0.1037 C
3 C3     3.4385    -1.3536    -0.1860 C
4 C4    -0.7048    -3.7272    -0.2814 C
5 C5    -1.7599    -4.6708    -0.1677 C
6 C6    -2.9612    -3.9621    -0.1142 C
7 C7    -2.6539    -2.5734    -0.1846 C
8 N8    -1.2959    -2.4962    -0.3213 N
9 C9    -2.7902    -0.1161    -0.0117 C
10 C10    -3.4962     1.1452     0.1039 C
11 C11    -2.5544     2.1300     0.0856 C
12 C12    -1.2580     1.4750    -0.0387 C
13 N13    -1.4232     0.1261    -0.0858 N
14 C14     1.2534     1.5625    -0.1857 C
15 C15     2.5418     2.1742    -0.3558 C
16 C16     3.4964     1.1861    -0.3749 C
17 C17     2.8513    -0.0849    -0.2242 C
18 N18     1.4853     0.2033    -0.1379 N
19 C19     2.6645    -2.5399    -0.1937 C
20 C20     2.9351    -3.8703     0.2060 C
21 C21     1.7392    -4.5991     0.1586 C
22 C22     0.7166    -3.7340    -0.2801 C
23 N23     1.3186    -2.5107    -0.5066 N
24 H24    -1.6379    -5.7450    -0.1380 H
25 H25    -4.5693     1.2540     0.1826 H
26 H26    -2.7206     3.1956     0.1639 H
27 H27     2.7067     3.2351    -0.4786 H
28 H28     4.5610     1.3078    -0.5156 H
29 H29     3.8924    -4.2240     0.5624 H
30 H30     1.5947    -5.6205     0.4837 H
31 C31    -0.0351     3.6482    -0.0962 C
32 C32    -0.6178     4.3818    -1.1351 C
33 C33     0.5291     4.3865     0.9495 C
34 C34    -0.6541     5.7722    -1.1328 C
35 C35     0.5180     5.7774     0.9677 C
36 C36    -0.0803     6.4734    -0.0773 C
37 C37     4.9252    -1.4630    -0.0642 C
38 C38     5.6961    -1.8363    -1.1839 C
39 C39     5.5363    -1.1905     1.1765 C
40 C40     7.0919    -1.9566    -1.0509 C
41 C41     6.9352    -1.2822     1.2915 C
42 C42     7.7052    -1.6994     0.1902 C
43 C43    -4.8899    -1.5015     0.0942 C
44 C44    -5.6971    -1.5379    -1.0587 C
45 C45    -5.4587    -1.6101     1.3777 C
46 C46    -7.0909    -1.6734    -0.9219 C
47 C47    -7.6701    -1.7324     0.3595 C
48 H48    -0.8726    -1.5635    -0.2552 H
49 H49     0.7807    -0.4116     0.2456 H
50 H50    -3.9554    -4.3759    -0.0182 H
51 H51     0.9339    -1.8207    -1.1383 H
52 C52    -6.8543    -1.7378     1.5066 C
53 C53    -7.4753    -1.8755     2.8801 C
54 C54    -9.1766    -1.7843     0.5041 C
55 C55    -7.9671    -1.7510    -2.1539 C
56 C56    -5.0774    -1.4212    -2.4340 C
57 C57    -4.5835    -1.5872     2.6113 C
58 C58     4.7006    -0.8302     2.3858 C
59 C59     7.6126    -0.9357     2.6003 C
60 C60     9.2009    -1.8759     0.3412 C
61 C61     7.9455    -2.3627    -2.2329 C
62 C62     5.0342    -2.1002    -2.5191 C
63 H63     3.9568    -1.9420    -2.4738 H
64 H64     5.2009    -3.1300    -2.8576 H
65 H65     5.4267    -1.4376    -3.3000 H
66 H66     8.2962    -3.4002    -2.1416 H
67 H67     8.8369    -1.7325    -2.3222 H
68 H68     7.4047    -2.2921    -3.1773 H
69 H69     9.7481    -0.9469     0.1252 H
70 H70     9.4724    -2.1793     1.3555 H
71 H71     9.5890    -2.6399    -0.3365 H
72 H72     7.0044    -0.2601     3.2051 H
73 H73     7.8097    -1.8277     3.2121 H
74 H74     8.5740    -0.4403     2.4364 H
75 H75     5.0440    -1.3630     3.2784 H
76 H76     4.7455     0.2432     2.6125 H
77 H77     3.6503    -1.0830     2.2366 H
78 H78    -4.0266    -1.1349    -2.3782 H
79 H79    -5.1292    -2.3700    -2.9845 H
80 H80    -5.5911    -0.6682    -3.0421 H
81 H81    -7.4128    -2.1131    -3.0222 H
82 H82    -8.3856    -0.7711    -2.4252 H
83 H83    -8.8112    -2.4308    -2.0064 H
84 H84    -9.6781    -1.2661    -0.3170 H
85 H85    -9.5566    -2.8160     0.5149 H
86 H86    -9.5098    -1.3096     1.4304 H
87 H87    -8.3470    -2.5360     2.8668 H
88 H88    -6.7703    -2.2908     3.6033 H
89 H89    -7.8097    -0.9068     3.2789 H
90 H90    -4.9355    -0.8472     3.3392 H
91 H91    -3.5497    -1.3416     2.3676 H
92 H92    -4.5775    -2.5601     3.1201 H
93 F93    -1.1662     3.7464    -2.1811 F
94 F94    -1.2214     6.4401    -2.1464 F
95 F95    -0.1019     7.8108    -0.0686 F
96 F96     1.0670     6.4492     1.9890 F
97 F97     1.1055     3.7555     1.9840 F
@<TRIPOS>BOND
1 1 7 Ar
2 1 9 Ar
3 1 43 1
4 2 12 Ar
5 2 14 Ar
6 2 31 1
7 3 17 Ar
8 3 19 Ar
9 3 37 1
10 4 5 Ar
11 4 8 Ar
12 4 22 Ar
13 5 6 Ar
14 5 24 1
15 6 7 Ar
16 6 50 1
17 7 8 Ar
18 8 48 1
19 9 10 1
20 9 13 1
21 10 11 2
22 10 25 1
23 11 12 1
24 11 26 1
25 12 13 Ar
26 14 15 Ar
27 14 18 Ar
28 15 16 2
29 15 27 1
30 16 17 Ar
31 16 28 1
32 17 18 1
33 18 49 1
34 19 20 Ar
35 19 23 1
36 20 21 Ar
37 20 29 1
38 21 22 Ar
39 21 30 1
40 22 23 1
41 23 51 1
42 31 32 Ar
43 31 33 Ar
44 32 34 Ar
45 32 93 1
46 33 35 Ar
47 33 97 1
48 34 36 Ar
49 34 94 1
50 35 36 Ar
51 35 96 1
52 36 95 1
53 37 38 Ar
54 37 39 Ar
55 38 40 Ar
56 38 62 1
57 39 41 Ar
58 39 58 1
59 40 42 Ar
60 40 61 1
61 41 42 Ar
62 41 59 1
63 42 60 1
64 43 44 Ar
65 43 45 Ar
66 44 46 Ar
67 44 56 1
68 45 52 Ar
69 45 57 1
70 46 47 Ar
71 46 55 1
72 47 52 Ar
73 47 54 1
74 52 53 1
75 53 87 1
76 53 88 1
77 53 89 1
78 54 84 1
79 54 85 1
80 54 86 1
81 55 81 1
82 55 82 1
83 55 83 1
84 56 78 1
85 56 79 1
86 56 80 1
87 57 90 1
88 57 91 1
89 57 92 1
90 58 75 1
91 58 76 1
92 58 77 1
93 59 72 1
94 59 73 1
95 59 74 1
96 60 69 1
97 60 70 1
98 60 71 1
99 61 66 1
100 61 67 1
101 61 68 1
102 62 63 1
103 62 64 1
104 62 65 1
