# N4_Me_OH_OPT
# Created by GaussView 6.0.16
#

#
#

@<TRIPOS>MOLECULE
Molecule Name
102 109
SMALL
NO_CHARGES


@<TRIPOS>ATOM
1 C1    -3.3878    -1.4073    -0.0532 C
2 C2    -0.0153     2.1572    -0.0979 C
3 C3     3.4560    -1.3377    -0.1707 C
4 C4    -0.6733    -3.7393    -0.2624 C
5 C5    -1.7243    -4.6882    -0.1577 C
6 C6    -2.9305    -3.9860    -0.1108 C
7 C7    -2.6308    -2.5955    -0.1769 C
8 N8    -1.2717    -2.5111    -0.3016 N
9 C9    -2.7808    -0.1374    -0.0201 C
10 C10    -3.4931     1.1237     0.0724 C
11 C11    -2.5537     2.1108     0.0571 C
12 C12    -1.2536     1.4599    -0.0402 C
13 N13    -1.4150     0.1083    -0.0777 N
14 C14     1.2481     1.5630    -0.1734 C
15 C15     2.5321     2.1851    -0.3322 C
16 C16     3.4957     1.2058    -0.3511 C
17 C17     2.8601    -0.0726    -0.2080 C
18 N18     1.4923     0.2031    -0.1298 N
19 C19     2.6896    -2.5299    -0.1764 C
20 C20     2.9704    -3.8607     0.2152 C
21 C21     1.7786    -4.5978     0.1685 C
22 C22     0.7482    -3.7383    -0.2615 C
23 N23     1.3423    -2.5093    -0.4834 N
24 H24    -1.5972    -5.7621    -0.1307 H
25 H25    -4.5681     1.2285     0.1328 H
26 H26    -2.7151     3.1784     0.1129 H
27 H27     2.6811     3.2499    -0.4390 H
28 H28     4.5605     1.3363    -0.4838 H
29 H29     3.9317    -4.2106     0.5646 H
30 H30     1.6429    -5.6221     0.4886 H
31 C31    -0.0512     3.6491    -0.0932 C
32 C32    -0.4795     4.3694    -1.2203 C
33 C33     0.3236     4.3788     1.0473 C
34 C34    -0.5204     5.7653    -1.2021 C
35 C35     0.2686     5.7773     1.0714 C
36 C36    -0.1643     6.4706    -0.0531 C
37 C37     4.9438    -1.4391    -0.0532 C
38 C38     5.7144    -1.8066    -1.1752 C
39 C39     5.5582    -1.1674     1.1861 C
40 C40     7.1109    -1.9238    -1.0459 C
41 C41     6.9578    -1.2538     1.2975 C
42 C42     7.7267    -1.6665     0.1939 C
43 C43    -4.8746    -1.5339     0.0773 C
44 C44    -5.6758    -1.5671    -1.0800 C
45 C45    -5.4516    -1.6529     1.3563 C
46 C46    -7.0699    -1.7092    -0.9526 C
47 C47    -7.6565    -1.7805     0.3248 C
48 H48    -0.8560    -1.5743    -0.2317 H
49 H49     0.7948    -0.4149     0.2613 H
50 H50    -3.9230    -4.4059    -0.0231 H
51 H51     0.9495    -1.8168    -1.1073 H
52 C52    -6.8471    -1.7895     1.4763 C
53 C53    -7.4745    -1.9428     2.8454 C
54 C54    -9.1637    -1.8415     0.4604 C
55 C55    -7.9385    -1.7818    -2.1904 C
56 C56    -5.0486    -1.4402    -2.4511 C
57 C57    -4.5838    -1.6309     2.5951 C
58 C58     4.7241    -0.8120     2.3977 C
59 C59     7.6371    -0.9067     2.6052 C
60 C60     9.2235    -1.8384     0.3412 C
61 C61     7.9630    -2.3268    -2.2304 C
62 C62     5.0495    -2.0698    -2.5090 C
63 H63     3.9735    -1.9030    -2.4614 H
64 H64     5.2076    -3.1021    -2.8446 H
65 H65     5.4457    -1.4125    -3.2925 H
66 H66     8.3216    -3.3616    -2.1381 H
67 H67     8.8496    -1.6906    -2.3251 H
68 H68     7.4177    -2.2627    -3.1727 H
69 H69     9.7678    -0.9067     0.1290 H
70 H70     9.4980    -2.1460     1.3535 H
71 H71     9.6132    -2.5978    -0.3409 H
72 H72     7.0290    -0.2310     3.2103 H
73 H73     7.8351    -1.7983     3.2176 H
74 H74     8.5982    -0.4110     2.4404 H
75 H75     5.0737    -1.3415     3.2901 H
76 H76     4.7615     0.2621     2.6228 H
77 H77     3.6752    -1.0719     2.2505 H
78 H78    -5.5580    -0.6816    -3.0561 H
79 H79    -3.9978    -1.1560    -2.3863 H
80 H80    -5.0986    -2.3845    -3.0093 H
81 H81    -7.3775    -2.1360    -3.0578 H
82 H82    -8.3592    -0.8017    -2.4581 H
83 H83    -8.7810    -2.4659    -2.0531 H
84 H84    -9.6633    -1.3200    -0.3599 H
85 H85    -9.5387    -2.8750     0.4617 H
86 H86    -9.5047    -1.3749     1.3879 H
87 H87    -8.3453    -2.6041     2.8211 H
88 H88    -6.7719    -2.3656     3.5667 H
89 H89    -7.8116    -0.9792     3.2543 H
90 H90    -4.9486    -0.9017     3.3276 H
91 H91    -3.5522    -1.3703     2.3583 H
92 H92    -4.5683    -2.6084     3.0950 H
93 O93    -0.9910     6.4703    -2.3158 O
94 H94    -0.2364     6.6622    -2.9018 H
95 O95    -0.2222     7.8344     0.0089 O
96 H96    -0.6922     8.1347    -0.7902 H
97 O97     0.6447     6.4080     2.2365 O
98 H98     0.4105     7.3481     2.1607 H
99 O99     0.7325     3.7145     2.1631 O
100 H100     0.8966     4.3831     2.8516 H
101 O101    -0.8487     3.7007    -2.3483 O
102 H102    -1.2475     4.3617    -2.9430 H
@<TRIPOS>BOND
1 1 7 Ar
2 1 9 Ar
3 1 43 1
4 2 12 Ar
5 2 14 Ar
6 2 31 1
7 3 17 Ar
8 3 19 Ar
9 3 37 1
10 4 5 Ar
11 4 8 Ar
12 4 22 Ar
13 5 6 Ar
14 5 24 1
15 6 7 Ar
16 6 50 1
17 7 8 Ar
18 8 48 1
19 9 10 1
20 9 13 1
21 10 11 2
22 10 25 1
23 11 12 1
24 11 26 1
25 12 13 Ar
26 14 15 Ar
27 14 18 1
28 15 16 2
29 15 27 1
30 16 17 Ar
31 16 28 1
32 17 18 1
33 18 49 1
34 19 20 Ar
35 19 23 1
36 20 21 Ar
37 20 29 1
38 21 22 Ar
39 21 30 1
40 22 23 1
41 23 51 1
42 31 32 Ar
43 31 33 Ar
44 32 34 Ar
45 32 101 1
46 33 35 Ar
47 33 99 1
48 34 36 Ar
49 34 93 1
50 35 36 Ar
51 35 97 1
52 36 95 1
53 37 38 Ar
54 37 39 Ar
55 38 40 Ar
56 38 62 1
57 39 41 Ar
58 39 58 1
59 40 42 Ar
60 40 61 1
61 41 42 Ar
62 41 59 1
63 42 60 1
64 43 44 Ar
65 43 45 Ar
66 44 46 Ar
67 44 56 1
68 45 52 Ar
69 45 57 1
70 46 47 Ar
71 46 55 1
72 47 52 Ar
73 47 54 1
74 52 53 1
75 53 87 1
76 53 88 1
77 53 89 1
78 54 84 1
79 54 85 1
80 54 86 1
81 55 81 1
82 55 82 1
83 55 83 1
84 56 78 1
85 56 79 1
86 56 80 1
87 57 90 1
88 57 91 1
89 57 92 1
90 58 75 1
91 58 76 1
92 58 77 1
93 59 72 1
94 59 73 1
95 59 74 1
96 60 69 1
97 60 70 1
98 60 71 1
99 61 66 1
100 61 67 1
101 61 68 1
102 62 63 1
103 62 64 1
104 62 65 1
105 93 94 1
106 95 96 1
107 97 98 1
108 99 100 1
109 101 102 1
