# N6
# Created by GaussView 6.0.16
#

#
#

@<TRIPOS>MOLECULE
Molecule Name
73 80
SMALL
NO_CHARGES


@<TRIPOS>ATOM
1 C1    -3.1710    -1.4917     0.5881 C
2 C2    -0.1460     2.3971     0.3856 C
3 C3     3.5890    -0.7295    -0.2631 C
4 C4    -0.1974    -3.5278     0.3164 C
5 C5    -1.1477    -4.5089    -0.0335 C
6 C6    -2.4194    -3.9341     0.0568 C
7 C7    -2.2724    -2.5779     0.4475 C
8 N8    -0.9153    -2.3857     0.6191 N
9 C9    -2.7333    -0.1582     0.6434 C
10 C10    -3.4843     1.0258     0.9407 C
11 C11    -2.6399     2.1093     0.9011 C
12 C12    -1.3253     1.6548     0.5500 C
13 N13    -1.4241     0.2807     0.4303 N
14 C14     1.1506     1.8642     0.1364 C
15 C15     2.3403     2.6742    -0.0811 C
16 C16     3.3810     1.8126    -0.2604 C
17 C17     2.8385     0.4693    -0.1725 C
18 N18     1.4761     0.5408     0.0660 N
19 C19     2.9986    -2.0016    -0.0673 C
20 C20     3.4278    -3.3488    -0.2726 C
21 C21     2.3237    -4.1804    -0.1120 C
22 C22     1.2034    -3.3602     0.1905 C
23 N23     1.6716    -2.0767     0.2509 N
24 C24     5.0298    -0.6858    -0.6087 C
25 C25     5.9625    -1.3822     0.1712 C
26 C26     7.3079    -1.3509    -0.1819 C
27 C27     7.7762    -0.6441    -1.2874 C
28 C28     6.8476     0.0436    -2.0642 C
29 C29     5.4927     0.0184    -1.7351 C
30 C30    -4.6300    -1.7810     0.6515 C
31 C31    -5.2778    -2.3665    -0.4416 C
32 C32    -6.6392    -2.6439    -0.3568 C
33 C33    -7.3941    -2.3499     0.7761 C
34 C34    -6.7468    -1.7644     1.8606 C
35 C35    -5.3801    -1.4893     1.8026 C
36 C36    -0.2785     3.8774     0.5150 C
37 C37    -1.1072     4.5975    -0.3525 C
38 C38    -1.2241     5.9765    -0.1987 C
39 C39    -0.5376     6.6801     0.7883 C
40 C40     0.2876     5.9620     1.6496 C
41 C41     0.4121     4.5788     1.5184 C
42 H42    -4.5365     1.0386     1.1845 H
43 H43    -2.9009     3.1352     1.1146 H
44 H44     2.3041    -5.2576    -0.2050 H
45 H45     4.4295    -3.6568    -0.5357 H
46 H46     2.3785     3.7539    -0.0995 H
47 H47     4.4195     2.0689    -0.4151 H
48 H48    -3.3546    -4.4131    -0.1953 H
49 H49    -7.3080    -1.5317     2.7600 H
50 H50    -4.8809    -1.0512     2.6612 H
51 H51    -4.7399    -2.5951    -1.3522 H
52 H52     5.6523    -1.9306     1.0507 H
53 H53     7.1801     0.5921    -2.9397 H
54 H54     4.7754     0.5341    -2.3644 H
55 H55     1.0457     4.0266     2.2047 H
56 H56     0.8288     6.4819     2.4337 H
57 H57    -1.6506     4.0983    -1.1440 H
58 H58    -0.9172    -5.5059    -0.3832 H
59 H59    -0.5616    -1.6732     1.2444 H
60 H60    -0.7156    -0.2303    -0.0793 H
61 H61     1.1508    -1.1912     0.2750 H
62 H62     8.8323    -0.6454    -1.5243 H
63 H63    -0.6559     7.7528     0.8705 H
64 H64    -8.4515    -2.5801     0.7970 H
65 N65    -7.3026    -3.2635    -1.5111 N
66 N66    -2.0994     6.7155    -1.1167 N
67 N67     8.2694    -2.0873     0.6481 N
68 O68    -2.1852     7.9362    -0.9733 O
69 O69    -2.7038     6.0765    -1.9794 O
70 O70    -8.5165    -3.4596    -1.4408 O
71 O71    -6.6086    -3.5566    -2.4858 O
72 O72     7.8350    -2.7209     1.6112 O
73 O73     9.4596    -2.0349     0.3348 O
@<TRIPOS>BOND
1 1 7 Ar
2 1 9 Ar
3 1 30 1
4 2 12 Ar
5 2 14 Ar
6 2 36 1
7 3 17 Ar
8 3 19 Ar
9 3 24 1
10 4 5 Ar
11 4 8 1
12 4 22 Ar
13 5 6 Ar
14 5 58 1
15 6 7 Ar
16 6 48 1
17 7 8 Ar
18 8 59 1
19 9 10 Ar
20 9 13 1
21 10 11 2
22 10 42 1
23 11 12 Ar
24 11 43 1
25 12 13 1
26 13 60 1
27 14 15 1
28 14 18 Ar
29 15 16 2
30 15 46 1
31 16 17 1
32 16 47 1
33 17 18 1
34 19 20 Ar
35 19 23 Ar
36 20 21 Ar
37 20 45 1
38 21 22 Ar
39 21 44 1
40 22 23 Ar
41 23 61 1
42 24 25 Ar
43 24 29 Ar
44 25 26 Ar
45 25 52 1
46 26 27 Ar
47 26 67 1
48 27 28 Ar
49 27 62 1
50 28 29 Ar
51 28 53 1
52 29 54 1
53 30 31 Ar
54 30 35 Ar
55 31 32 Ar
56 31 51 1
57 32 33 Ar
58 32 65 1
59 33 34 Ar
60 33 64 1
61 34 35 Ar
62 34 49 1
63 35 50 1
64 36 37 Ar
65 36 41 Ar
66 37 38 Ar
67 37 57 1
68 38 39 Ar
69 38 66 1
70 39 40 Ar
71 39 63 1
72 40 41 Ar
73 40 56 1
74 41 55 1
75 65 70 Ar
76 65 71 Ar
77 66 68 Ar
78 66 69 Ar
79 67 72 Ar
80 67 73 Ar
