# NaSO32_COOH3
# Created by GaussView 6.0.16
#

#
#

@<TRIPOS>MOLECULE
Molecule Name
54 57
SMALL
NO_CHARGES


@<TRIPOS>ATOM
1 C1     1.8790    -2.4123    -0.2576 C
2 C2    -2.9646    -3.1786     0.2076 C
3 C3    -3.6463     1.6891    -0.3570 C
4 C4     1.0582     0.9814    -0.6771 C
5 C5     2.4873     1.1817    -0.6719 C
6 C6     3.0485    -0.0682    -0.6021 C
7 C7     1.9319    -1.0315    -0.5491 C
8 N8     0.7582    -0.3375    -0.6199 N
9 C9     0.6734    -3.0985     0.0203 C
10 C10     0.4611    -4.4707     0.3551 C
11 C11    -0.8919    -4.6693     0.5106 C
12 C12    -1.5694    -3.4248     0.2709 C
13 N13    -0.5759    -2.5112    -0.0026 N
14 C14    -3.6132    -1.9565    -0.0640 C
15 C15    -4.9839    -1.7273    -0.3963 C
16 C16    -5.1858    -0.3746    -0.5448 C
17 C17    -3.9570     0.3089    -0.3072 C
18 N18    -3.0117    -0.6999    -0.0553 N
19 C19    -2.3043     2.1536    -0.4449 C
20 C20    -1.6738     3.4032    -0.1765 C
21 C21    -0.2984     3.2235    -0.3016 C
22 C22    -0.0479     1.8659    -0.6403 C
23 N23    -1.2848     1.2871    -0.7446 N
24 H24     3.0062     2.1276    -0.7153 H
25 H25     1.2377    -5.2143     0.4631 H
26 H26    -1.3794    -5.5938     0.7719 H
27 H27    -5.7062    -2.5100    -0.5594 H
28 H28    -6.1033     0.1082    -0.8367 H
29 H29    -2.1769     4.3173     0.0891 H
30 C30    -4.6950     2.7287    -0.2840 C
31 O31    -4.4955     3.9255    -0.4051 O
32 C32    -3.8813    -4.3491     0.3803 C
33 C33     3.0973    -3.2896    -0.2799 C
34 O34     3.6743    -3.6806    -1.2560 O
35 O35    -4.8487    -4.6007    -0.3102 O
36 O36     3.4452    -3.7095     0.9930 O
37 H37     4.2493    -4.2580     0.8782 H
38 O38    -3.5514    -5.1238     1.4406 O
39 H39    -4.1962    -5.8596     1.4439 H
40 O40    -5.9402     2.2549    -0.0329 O
41 H41    -6.5199     3.0412    -0.0268 H
42 S42     0.9357     4.4424     0.0705 S
43 S43     4.8213    -0.3333    -0.5565 S
44 O44     0.1914     5.7520     0.1127 O
45 O45     1.9689     4.3310    -0.9694 O
46 O46     5.1899    -0.9685    -1.8325 O
47 O47     5.4022     0.9945    -0.2813 O
48 O48     1.4134     4.1339     1.4700 O
49 O49     4.9743    -1.2819     0.6207 O
50 H50    -0.6150    -1.5432    -0.3277 H
51 H51    -2.1994    -0.5084     0.5184 H
52 H52    -1.4005     0.3698    -1.1487 H
53 Na53     0.7614     6.1443     2.2428 Na
54 Na54     3.7439    -1.7366     2.2704 Na
@<TRIPOS>BOND
1 1 7 Ar
2 1 9 Ar
3 1 33 1
4 2 12 Ar
5 2 14 Ar
6 2 32 1
7 3 17 Ar
8 3 19 Ar
9 3 30 1
10 4 5 Ar
11 4 8 Ar
12 4 22 Ar
13 5 6 2
14 5 24 1
15 6 7 1
16 6 43 1
17 7 8 Ar
18 9 10 Ar
19 9 13 Ar
20 10 11 2
21 10 25 1
22 11 12 Ar
23 11 26 1
24 12 13 Ar
25 13 50 1
26 14 15 Ar
27 14 18 1
28 15 16 2
29 15 27 1
30 16 17 Ar
31 16 28 1
32 17 18 1
33 18 51 1
34 19 20 Ar
35 19 23 Ar
36 20 21 Ar
37 20 29 1
38 21 22 Ar
39 21 42 1
40 22 23 Ar
41 23 52 1
42 30 31 2
43 30 40 1
44 32 35 2
45 32 38 1
46 33 34 2
47 33 36 1
48 36 37 1
49 38 39 1
50 40 41 1
51 42 44 Ar
52 42 45 2
53 42 48 Ar
54 43 46 2
55 43 47 2
56 43 49 Ar
57 49 54 1
