# 35Me2Ph3_COOH_TD
# Created by GaussView 6.0.16
#

#
#

@<TRIPOS>MOLECULE
Molecule Name
88 95
SMALL
NO_CHARGES


@<TRIPOS>ATOM
1 C1     3.2636    -0.5064    -0.1278 C
2 C2    -0.6317     2.5382    -0.0527 C
3 C3    -3.5622    -1.4034    -0.0509 C
4 C4     0.8353    -3.1943    -0.3347 C
5 C5     1.9105    -3.9531     0.1397 C
6 C6     3.0120    -3.0906     0.3105 C
7 C7     2.6261    -1.7816    -0.1008 C
8 N8     1.3162    -1.9081    -0.5044 N
9 C9     2.5069     0.6771    -0.1601 C
10 C10     2.9523     2.0090    -0.4590 C
11 C11     1.8730     2.8554    -0.4341 C
12 C12     0.6953     2.0937    -0.1243 C
13 N13     1.1264     0.7856     0.0169 N
14 C14    -1.7843     1.7016     0.0299 C
15 C15    -3.1485     2.1952     0.1463 C
16 C16    -3.9678     1.1055     0.1407 C
17 C17    -3.1153    -0.0639     0.0400 C
18 N18    -1.7894     0.3403    -0.0162 N
19 C19    -2.6584    -2.4771    -0.2574 C
20 C20    -2.7721    -3.8959    -0.1935 C
21 C21    -1.4886    -4.4350    -0.2745 C
22 C22    -0.5763    -3.3563    -0.3852 C
23 N23    -1.3238    -2.2135    -0.4183 N
24 C24    -5.0001    -1.7312     0.0992 C
25 C25    -5.6417    -2.5443    -0.8461 C
26 C26    -6.9933    -2.8804    -0.7162 C
27 C27     4.7403    -0.4378    -0.1743 C
28 C28     5.4578     0.4466     0.6485 C
29 C29     5.4531    -1.2876    -1.0302 C
30 C30    -0.8381     4.0148    -0.1174 C
31 C31    -0.2528     4.8588     0.8363 C
32 C32    -0.4265     6.2457     0.7840 C
33 C33    -1.2032     6.7845    -0.2468 C
34 H34     1.8763    -4.9897     0.4430 H
35 H35     0.8748    -1.2272    -1.1081 H
36 H36     3.9708     2.2634    -0.7121 H
37 H37     1.8733     3.9119    -0.6570 H
38 H38     0.5289     0.0863     0.4362 H
39 H39    -3.4387     3.2329     0.2223 H
40 H40    -5.0475     1.0967     0.1803 H
41 H41    -3.6955    -4.4431    -0.0702 H
42 H42    -1.2199    -5.4823    -0.2486 H
43 H43    -1.0279    -1.2324    -0.3172 H
44 C44    -1.8006     5.9697    -1.2158 C
45 C45    -1.6056     4.5880    -1.1421 C
46 H46     0.3398     4.4228     1.6358 H
47 H47    -2.0464     3.9439    -1.8974 H
48 H48     4.9090    -1.9680    -1.6797 H
49 H49     4.9163     1.0846     1.3403 H
50 H50    -5.0820    -2.8999    -1.7064 H
51 C51     4.2621    -3.5485     0.9385 C
52 O52     4.8090    -2.6364     1.7720 O
53 H53     5.6505    -3.0211     2.0841 H
54 O54     4.7404    -4.6568     0.7794 O
55 C55    -7.8815    -1.0594     2.5244 C
56 H56    -8.7588    -0.4869     2.1989 H
57 H57    -8.2504    -1.8829     3.1488 H
58 H58    -7.2724    -0.4077     3.1585 H
59 C59    -7.6619    -3.7755    -1.7308 C
60 H60    -7.5745    -4.8327    -1.4458 H
61 H61    -8.7302    -3.5519    -1.8214 H
62 H62    -7.2069    -3.6681    -2.7211 H
63 C63    -2.6422     6.5740    -2.3130 C
64 H64    -3.5803     6.9820    -1.9146 H
65 H65    -2.1209     7.3989    -2.8130 H
66 H66    -2.9018     5.8298    -3.0724 H
67 C67     0.1879     7.1414     1.8321 C
68 H68     0.6276     8.0401     1.3845 H
69 H69    -0.5638     7.4789     2.5579 H
70 H70     0.9735     6.6233     2.3914 H
71 C71     7.5923    -2.2129    -1.9895 C
72 H72     7.3278    -2.0344    -3.0392 H
73 H73     8.6764    -2.0954    -1.8942 H
74 H74     7.3460    -3.2592    -1.7701 H
75 C75     7.6152     1.4215     1.5295 C
76 H76     8.1334     0.8709     2.3256 H
77 H77     8.3807     1.9797     0.9772 H
78 H78     6.9498     2.1466     2.0087 H
79 H79    -1.3455     7.8627    -0.2977 H
80 C80    -7.7043    -2.3840     0.3801 C
81 H81    -8.7583    -2.6339     0.4871 H
82 C82     7.5352    -0.3829    -0.2382 C
83 H83     8.6232    -0.3645    -0.2584 H
84 C84     6.8512     0.4871     0.6235 C
85 C85     6.8516    -1.2754    -1.0676 C
86 C86    -7.0925    -1.5730     1.3448 C
87 C87    -5.7407    -1.2584     1.1953 C
88 H88    -5.2452    -0.6504     1.9458 H
@<TRIPOS>BOND
1 1 7 Ar
2 1 9 Ar
3 1 27 1
4 2 12 Ar
5 2 14 Ar
6 2 30 1
7 3 17 Ar
8 3 19 Ar
9 3 24 1
10 4 5 Ar
11 4 8 1
12 4 22 Ar
13 5 6 Ar
14 5 34 1
15 6 7 Ar
16 6 51 1
17 7 8 Ar
18 8 35 1
19 9 10 Ar
20 9 13 1
21 10 11 2
22 10 36 1
23 11 12 Ar
24 11 37 1
25 12 13 1
26 13 38 1
27 14 15 1
28 14 18 Ar
29 15 16 2
30 15 39 1
31 16 17 1
32 16 40 1
33 17 18 1
34 19 20 Ar
35 19 23 Ar
36 20 21 Ar
37 20 41 1
38 21 22 Ar
39 21 42 1
40 22 23 Ar
41 23 43 1
42 24 25 Ar
43 24 87 Ar
44 25 26 Ar
45 25 50 1
46 26 59 1
47 26 80 Ar
48 27 28 Ar
49 27 29 Ar
50 28 49 1
51 28 84 Ar
52 29 48 1
53 29 85 Ar
54 30 31 Ar
55 30 45 Ar
56 31 32 Ar
57 31 46 1
58 32 33 Ar
59 32 67 1
60 33 44 Ar
61 33 79 1
62 44 45 Ar
63 44 63 1
64 45 47 1
65 51 52 1
66 51 54 2
67 52 53 1
68 55 56 1
69 55 57 1
70 55 58 1
71 55 86 1
72 59 60 1
73 59 61 1
74 59 62 1
75 63 64 1
76 63 65 1
77 63 66 1
78 67 68 1
79 67 69 1
80 67 70 1
81 71 72 1
82 71 73 1
83 71 74 1
84 71 85 1
85 75 76 1
86 75 77 1
87 75 78 1
88 75 84 1
89 80 81 1
90 80 86 Ar
91 82 83 1
92 82 84 Ar
93 82 85 Ar
94 86 87 Ar
95 87 88 1
