# Os_N_TD
# Created by GaussView 6.0.16
#

#
#

@<TRIPOS>MOLECULE
Molecule Name
66 76
SMALL
NO_CHARGES


@<TRIPOS>ATOM
1 C1     3.3605    -0.9102     0.1251 C
2 C2    -3.3821    -0.8495     0.1204 C
3 C3     0.6785    -3.3311     0.1917 C
4 C4     1.7632    -4.2112     0.4226 C
5 C5     2.9363    -3.4618     0.3668 C
6 C6     2.5903    -2.0959     0.1233 C
7 C7     2.7973     0.3845     0.0799 C
8 C8     3.4812     1.6220     0.3165 C
9 C9     2.5585     2.6394     0.3223 C
10 C10     1.2645     2.0707     0.0882 C
11 N11     1.4367     0.6970    -0.0728 N
12 C12    -1.2369     2.0969     0.0732 C
13 C13    -2.5329     2.6951     0.2013 C
14 C14    -3.4705     1.6914     0.2081 C
15 C15    -2.7977     0.4341     0.0644 C
16 N16    -1.4251     0.7187    -0.0391 N
17 C17    -2.6315    -2.0481     0.1378 C
18 C18    -3.0010    -3.4050     0.3949 C
19 C19    -1.8415    -4.1759     0.4463 C
20 C20    -0.7427    -3.3180     0.1987 C
21 N21    -1.2606    -2.0428    -0.0194 N
22 C22    -7.0775    -0.5454    -0.6826 C
23 C23    -5.6898    -0.4506    -0.7836 C
24 C24    -4.8636    -0.9437     0.2381 C
25 C25    -5.4602    -1.5291     1.3656 C
26 C26    -6.8482    -1.6243     1.4651 C
27 C27     0.6700     6.3886    -0.7039 C
28 C28     0.6345     4.9976    -0.8007 C
29 C29     0.0464     4.2245     0.2123 C
30 C30    -0.4993     4.8782     1.3277 C
31 C31    -0.4662     6.2694     1.4229 C
32 H32     1.6849    -5.2700     0.6310 H
33 H33     3.9409    -3.8320     0.5129 H
34 H34     4.5411     1.7072     0.5079 H
35 H35     2.7458     3.6866     0.5097 H
36 H36    -2.7165     3.7548     0.2984 H
37 H37    -4.5380     1.8042     0.3313 H
38 H38    -4.0111    -3.7551     0.5527 H
39 H39    -1.7812    -5.2345     0.6618 H
40 H40    -7.7027    -0.1640    -1.4852 H
41 H41    -5.2355    -0.0019    -1.6620 H
42 H42    -4.8299    -1.8954     2.1703 H
43 H43    -7.2946    -2.0751     2.3471 H
44 H44     1.1247     6.9719    -1.4999 H
45 H45     1.0573     4.5008    -1.6689 H
46 H46    -0.9408     4.2887     2.1256 H
47 H47    -0.8905     6.7589     2.2951 H
48 C48     0.1179     7.0288     0.4072 C
49 C49    -7.6610    -1.1340     0.4412 C
50 C50     0.0197     2.7367     0.1008 C
51 N51     1.2181    -2.0643    -0.0245 N
52 C52     4.8375    -1.0256     0.2712 C
53 C53     5.4045    -1.6571     1.3894 C
54 C54     5.6913    -0.4983    -0.7103 C
55 C55     6.7891    -1.7641     1.5183 C
56 H56     4.7540    -2.0479     2.1658 H
57 C57     7.0756    -0.6055    -0.5800 C
58 H58     5.2614    -0.0130    -1.5813 H
59 C59     7.6291    -1.2398     0.5339 C
60 H60     7.2118    -2.2495     2.3936 H
61 H61     7.7215    -0.1971    -1.3522 H
62 H62     8.7075    -1.3229     0.6351 H
63 H63    -8.7420    -1.2083     0.5191 H
64 H64     0.1439     8.1123     0.4818 H
65 Os65    -0.0097    -0.5980    -0.7123 Os
66 N66    -0.0170    -0.5762    -2.3646 N
@<TRIPOS>BOND
1 1 6 Ar
2 1 7 Ar
3 1 52 1
4 2 15 Ar
5 2 17 Ar
6 2 24 1
7 3 4 Ar
8 3 20 Ar
9 3 51 1
10 4 5 Ar
11 4 32 1
12 5 6 Ar
13 5 33 1
14 6 51 Ar
15 7 8 Ar
16 7 11 1
17 8 9 2
18 8 34 1
19 9 10 Ar
20 9 35 1
21 10 11 1
22 10 50 Ar
23 11 65 1
24 12 13 Ar
25 12 16 1
26 12 50 Ar
27 13 14 2
28 13 36 1
29 14 15 Ar
30 14 37 1
31 15 16 1
32 16 65 1
33 17 18 Ar
34 17 21 Ar
35 18 19 Ar
36 18 38 1
37 19 20 Ar
38 19 39 1
39 20 21 1
40 21 65 1
41 22 23 Ar
42 22 40 1
43 22 49 Ar
44 23 24 Ar
45 23 41 1
46 24 25 Ar
47 25 26 Ar
48 25 42 1
49 26 43 1
50 26 49 Ar
51 27 28 Ar
52 27 44 1
53 27 48 Ar
54 28 29 Ar
55 28 45 1
56 29 30 Ar
57 29 50 1
58 30 31 Ar
59 30 46 1
60 31 47 1
61 31 48 Ar
62 48 64 1
63 49 63 1
64 51 65 1
65 52 53 Ar
66 52 54 Ar
67 53 55 Ar
68 53 56 1
69 54 57 Ar
70 54 58 1
71 55 59 Ar
72 55 60 1
73 57 59 Ar
74 57 61 1
75 59 62 1
76 65 66 1
