# P_C12_OH2_OPT
# Created by GaussView 6.0.16
#

#
#

@<TRIPOS>MOLECULE
Molecule Name
66 75
SMALL
NO_CHARGES


@<TRIPOS>ATOM
1 C1    -3.3556    -0.9675     0.0534 C
2 C2    -0.0055     2.6194    -0.1000 C
3 C3     3.3554    -0.9611     0.0536 C
4 C4    -0.6983    -3.3161    -0.3217 C
5 C5    -1.7670    -4.2417    -0.2961 C
6 C6    -2.9305    -3.5054    -0.1436 C
7 C7    -2.5765    -2.1219    -0.0903 C
8 N8    -1.2106    -2.0481    -0.1977 N
9 C9    -2.7581     0.2966     0.0567 C
10 C10    -3.4532     1.5462     0.0207 C
11 C11    -2.5287     2.5485    -0.0670 C
12 C12    -1.2308     1.9472    -0.0668 C
13 N13    -1.3857     0.5706    -0.0051 N
14 C14     1.2214     1.9538    -0.0480 C
15 C15     2.5152     2.5571     0.0133 C
16 C16     3.4428     1.5557     0.1004 C
17 C17     2.7550     0.3023     0.0946 C
18 N18     1.3767     0.5737     0.0220 N
19 C19     2.5817    -2.1131    -0.1456 C
20 C20     2.9345    -3.4963    -0.1639 C
21 C21     1.7713    -4.2368    -0.3101 C
22 C22     0.7040    -3.3137    -0.3711 C
23 N23     1.2163    -2.0365    -0.3125 N
24 C24     6.8713    -0.7004     1.4260 C
25 C25     5.4915    -0.5423     1.3187 C
26 C26     4.8231    -1.0891     0.2136 C
27 C27     5.6038    -1.7777    -0.7260 C
28 C28     6.9780    -1.8832    -0.5223 C
29 N29     7.6193    -1.3580     0.5300 N
30 C30    -0.5259     6.2792     0.7351 C
31 C31    -0.5591     4.8908     0.8511 C
32 C32    -0.0025     4.1065    -0.1676 C
33 C33     0.5657     4.7817    -1.2559 C
34 C34     0.5516     6.1750    -1.2739 C
35 N35     0.0176     6.9279    -0.3031 N
36 C36    -6.9652    -1.8812    -0.6073 C
37 C37    -5.5861    -1.7811    -0.7782 C
38 C38    -4.8276    -1.0915     0.1781 C
39 C39    -5.5194    -0.5370     1.2644 C
40 C40    -6.9019    -0.6909     1.3388 C
41 N41    -7.6298    -1.3501     0.4274 N
42 P42    -0.0205    -0.6700    -0.1136 P
43 O43    -0.0212    -0.8679     1.5663 O
44 O44    -0.0833    -0.4210    -1.7848 O
45 H45    -1.6734    -5.3161    -0.3730 H
46 H46    -3.9376    -3.8888    -0.0677 H
47 H47    -4.5284     1.6449     0.0270 H
48 H48    -2.7138     3.6099    -0.1330 H
49 H49     2.6971     3.6212    -0.0034 H
50 H50     4.5168     1.6605     0.1388 H
51 H51     3.9390    -3.8797    -0.0584 H
52 H52     1.6778    -5.3134    -0.3440 H
53 H53     7.4012    -0.2823     2.2798 H
54 H54     4.9400    -0.0152     2.0900 H
55 H55     5.1471    -2.2097    -1.6101 H
56 H56     7.5957    -2.4112    -1.2464 H
57 H57    -0.9526     6.9012     1.5199 H
58 H58    -1.0030     4.4247     1.7247 H
59 H59     1.0024     4.2263    -2.0795 H
60 H60     0.9867     6.7127    -2.1144 H
61 H61    -7.5672    -2.4096    -1.3443 H
62 H62    -5.1083    -2.2163    -1.6495 H
63 H63    -4.9832    -0.0081     2.0453 H
64 H64    -7.4515    -0.2677     2.1776 H
65 H65     0.5873    -0.2222     1.9602 H
66 H66     0.6991    -0.8266    -2.1937 H
@<TRIPOS>BOND
1 1 7 Ar
2 1 9 Ar
3 1 38 1
4 2 12 Ar
5 2 14 Ar
6 2 32 1
7 3 17 Ar
8 3 19 Ar
9 3 26 1
10 4 5 Ar
11 4 8 Ar
12 4 22 Ar
13 5 6 2
14 5 45 1
15 6 7 Ar
16 6 46 1
17 7 8 Ar
18 8 42 1
19 9 10 Ar
20 9 13 1
21 10 11 2
22 10 47 1
23 11 12 Ar
24 11 48 1
25 12 13 1
26 13 42 1
27 14 15 Ar
28 14 18 1
29 15 16 2
30 15 49 1
31 16 17 Ar
32 16 50 1
33 17 18 1
34 19 20 Ar
35 19 23 Ar
36 20 21 Ar
37 20 51 1
38 21 22 Ar
39 21 52 1
40 22 23 Ar
41 23 42 1
42 24 25 Ar
43 24 29 Ar
44 24 53 1
45 25 26 Ar
46 25 54 1
47 26 27 Ar
48 27 28 Ar
49 27 55 1
50 28 29 Ar
51 28 56 1
52 30 31 Ar
53 30 35 Ar
54 30 57 1
55 31 32 Ar
56 31 58 1
57 32 33 Ar
58 33 34 Ar
59 33 59 1
60 34 35 Ar
61 34 60 1
62 36 37 Ar
63 36 41 Ar
64 36 61 1
65 37 38 Ar
66 37 62 1
67 38 39 Ar
68 39 40 Ar
69 39 63 1
70 40 41 Ar
71 40 64 1
72 42 43 1
73 42 44 1
74 43 65 1
75 44 66 1
