# P_COOC_COOH_Cl8_F6_OPT
# Created by GaussView 6.0.16
#

#
#

@<TRIPOS>MOLECULE
Molecule Name
80 86
SMALL
NO_CHARGES


@<TRIPOS>ATOM
1 C1    -3.4410    -1.5978    -0.1283 C
2 C2    -0.1940     2.1040     0.0856 C
3 C3     3.2791    -1.3296    -0.0925 C
4 C4    -0.7055    -3.8336     0.2652 C
5 C5    -1.7238    -4.8088     0.1939 C
6 C6    -2.9113    -4.1335    -0.0758 C
7 C7    -2.6234    -2.7324    -0.1219 C
8 N8    -1.2645    -2.5973     0.0496 N
9 C9    -2.8642    -0.3445     0.0891 C
10 C10    -3.5682     0.8554     0.4390 C
11 C11    -2.6576     1.8682     0.5943 C
12 C12    -1.3548     1.3542     0.2773 C
13 N13    -1.4816    -0.0202     0.0568 N
14 C14     1.0395     1.4965    -0.1597 C
15 C15     2.2949     2.1377    -0.4410 C
16 C16     3.2604     1.1651    -0.5104 C
17 C17     2.6392    -0.1049    -0.2655 C
18 N18     1.2548     0.1268    -0.1116 N
19 C19     2.5245    -2.4686     0.1985 C
20 C20     2.9268    -3.7992     0.5376 C
21 C21     1.7838    -4.5797     0.6637 C
22 C22     0.6823    -3.7431     0.3969 C
23 N23     1.1400    -2.4617     0.1611 N
24 C24     4.7651    -1.4433    -0.1516 C
25 C25     5.5365    -1.1513     0.9793 C
26 C26     6.9187    -1.2834     0.9363 C
27 C27     7.5515    -1.6739    -0.2504 C
28 C28     6.7796    -1.9762    -1.3790 C
29 C29     5.3932    -1.8748    -1.3238 C
30 C30    -4.9172    -1.7609    -0.2628 C
31 C31    -5.5373    -1.5032    -1.4902 C
32 C32    -6.9122    -1.6576    -1.6235 C
33 C33    -7.6817    -2.0691    -0.5291 C
34 C34    -7.0616    -2.3358     0.6995 C
35 C35    -5.6869    -2.1858     0.8273 C
36 C36    -0.2734     3.5941     0.1380 C
37 C37    -0.7614     4.3060    -0.9600 C
38 C38    -0.8336     5.6966    -0.9151 C
39 C39    -0.4224     6.3916     0.2215 C
40 C40     0.0627     5.6777     1.3162 C
41 C41     0.1397     4.2870     1.2776 C
42 P42    -0.0990    -1.2235    -0.6031 P
43 C43     9.0385    -1.8496    -0.2354 C
44 O44     9.7637    -1.3925    -1.2829 O
45 O45     9.6092    -2.4119     0.6736 O
46 C46     9.2690    -0.3589    -2.1510 C
47 H47     8.8303    -0.7882    -3.0561 H
48 H48     8.5334     0.2751    -1.6505 H
49 H49    10.1395     0.2414    -2.4253 H
50 C50    -9.1483    -2.2069    -0.7201 C
51 O51    -9.7363    -1.9817    -1.7603 O
52 O52    -9.7919    -2.6150     0.3984 O
53 H53   -10.7379    -2.6698     0.1633 H
54 H54    -7.4062    -1.4588    -2.5681 H
55 H55    -4.9391    -1.1769    -2.3351 H
56 H56    -5.2029    -2.3863     1.7778 H
57 H57    -7.6562    -2.6571     1.5464 H
58 H58     4.7950    -2.1233    -2.1948 H
59 H59     7.2568    -2.3161    -2.2924 H
60 H60     5.0478    -0.8285     1.8932 H
61 H61     7.5194    -1.0811     1.8168 H
62 H62     0.5153     3.7392     2.1345 H
63 H63    -1.0815     3.7732    -1.8482 H
64 H64    -0.4795     7.4732     0.2533 H
65 C65     0.5723     6.4139     2.5238 C
66 C66    -1.4231     6.4528    -2.0732 C
67 F67    -0.0291     7.6131     2.6770 F
68 F68     1.9027     6.6491     2.4365 F
69 F69     0.3737     5.7108     3.6603 F
70 F70    -2.7531     6.6464    -1.9143 F
71 F71    -1.2588     5.7939    -3.2410 F
72 F72    -0.8639     7.6744    -2.2133 F
73 Cl73    -4.4226    -4.9239    -0.3001 Cl
74 Cl74    -1.5658    -6.5138     0.3449 Cl
75 Cl75     1.7587    -6.2411     1.1014 Cl
76 Cl76     4.5143    -4.3988     0.8179 Cl
77 Cl77     4.9104     1.5046    -0.8710 Cl
78 Cl78     2.6320     3.8074    -0.7076 Cl
79 Cl79    -3.0938     3.4303     1.1814 Cl
80 Cl80    -5.2519     1.0680     0.7309 Cl
@<TRIPOS>BOND
1 1 7 Ar
2 1 9 Ar
3 1 30 1
4 2 12 Ar
5 2 14 Ar
6 2 36 1
7 3 17 Ar
8 3 19 Ar
9 3 24 1
10 4 5 Ar
11 4 8 Ar
12 4 22 Ar
13 5 6 Ar
14 5 74 1
15 6 7 Ar
16 6 73 1
17 7 8 Ar
18 9 10 Ar
19 9 13 1
20 10 11 2
21 10 80 1
22 11 12 Ar
23 11 79 1
24 12 13 1
25 14 15 Ar
26 14 18 1
27 15 16 2
28 15 78 1
29 16 17 Ar
30 16 77 1
31 17 18 1
32 19 20 Ar
33 19 23 1
34 20 21 Ar
35 20 76 1
36 21 22 Ar
37 21 75 1
38 22 23 Ar
39 24 25 Ar
40 24 29 Ar
41 25 26 Ar
42 25 60 1
43 26 27 Ar
44 26 61 1
45 27 28 Ar
46 27 43 1
47 28 29 Ar
48 28 59 1
49 29 58 1
50 30 31 Ar
51 30 35 Ar
52 31 32 Ar
53 31 55 1
54 32 33 Ar
55 32 54 1
56 33 34 Ar
57 33 50 1
58 34 35 Ar
59 34 57 1
60 35 56 1
61 36 37 Ar
62 36 41 Ar
63 37 38 Ar
64 37 63 1
65 38 39 Ar
66 38 66 1
67 39 40 Ar
68 39 64 1
69 40 41 Ar
70 40 65 1
71 41 62 1
72 43 44 1
73 43 45 2
74 44 46 1
75 46 47 1
76 46 48 1
77 46 49 1
78 50 51 2
79 50 52 1
80 52 53 1
81 65 67 1
82 65 68 1
83 65 69 1
84 66 70 1
85 66 71 1
86 66 72 1
