# P_COOC_COOH_F6_OPT
# Created by GaussView 6.0.16
#

#
#

@<TRIPOS>MOLECULE
Molecule Name
80 86
SMALL
NO_CHARGES


@<TRIPOS>ATOM
1 C1    -3.5678    -1.9409     0.0347 C
2 C2    -0.1609     1.6003     0.0249 C
3 C3     3.1668    -2.0033    -0.0173 C
4 C4    -0.9227    -4.3006     0.2656 C
5 C5    -1.9932    -5.2069     0.4163 C
6 C6    -3.1580    -4.4615     0.3042 C
7 C7    -2.7909    -3.1024     0.0855 C
8 N8    -1.4161    -3.0317     0.0647 N
9 C9    -2.9375    -0.6967     0.0380 C
10 C10    -3.6090     0.5606     0.0806 C
11 C11    -2.6657     1.5488     0.1012 C
12 C12    -1.3825     0.9281     0.0358 C
13 N13    -1.5424    -0.4547     0.0107 N
14 C14     1.0529     0.9133     0.0363 C
15 C15     2.3513     1.5067     0.0677 C
16 C16     3.2702     0.4953     0.0411 C
17 C17     2.5661    -0.7443    -0.0184 C
18 N18     1.1812    -0.4696    -0.0039 N
19 C19     2.3662    -3.1444     0.0979 C
20 C20     2.7052    -4.5187     0.2601 C
21 C21     1.5271    -5.2393     0.3900 C
22 C22     0.4741    -4.3082     0.2800 C
23 N23     0.9901    -3.0418     0.1113 N
24 C24     4.6433    -2.1308    -0.0863 C
25 C25     5.3568    -2.8120     0.9142 C
26 C26     6.7367    -2.9544     0.8299 C
27 C27     7.4442    -2.3875    -0.2376 C
28 C28     6.7410    -1.7043    -1.2382 C
29 C29     5.3563    -1.5882    -1.1676 C
30 C30    -5.0458    -2.0640     0.0499 C
31 C31    -5.6947    -2.8175    -0.9436 C
32 C32    -7.0759    -2.9660    -0.9315 C
33 C33    -7.8411    -2.3668     0.0771 C
34 C34    -7.2031    -1.6213     1.0774 C
35 C35    -5.8203    -1.4765     1.0640 C
36 C36    -0.1575     3.0881     0.0349 C
37 C37    -0.7127     3.8086    -1.0306 C
38 C38    -0.7172     5.2033    -1.0181 C
39 C39    -0.1585     5.9078     0.0471 C
40 C40     0.3986     5.1945     1.1069 C
41 C41     0.3937     3.7996     1.1084 C
42 H42    -1.9031    -6.2690     0.5985 H
43 H43    -4.1738    -4.8166     0.4055 H
44 H44    -4.6817     0.6792     0.1056 H
45 H45    -2.8316     2.6135     0.1718 H
46 H46     2.5442     2.5678     0.1201 H
47 H47     4.3458     0.5830     0.0829 H
48 H48     3.7128    -4.9071     0.2962 H
49 H49     1.4174    -6.3052     0.5342 H
50 P50    -0.1974    -1.7233    -0.5932 P
51 C51     8.9171    -2.6345    -0.3172 C
52 O52     9.7316    -1.6464    -0.7592 O
53 O53     9.4037    -3.7075    -0.0311 O
54 C54     9.3702    -0.2597    -0.6576 C
55 H55     9.0205     0.1185    -1.6225 H
56 H56     8.6056    -0.0906     0.1040 H
57 H57    10.2837     0.2700    -0.3766 H
58 C58    -9.3125    -2.5506     0.0445 C
59 O59    -9.9154    -3.1916    -0.7954 O
60 O60    -9.9480    -1.9223     1.0622 O
61 H61   -10.8990    -2.1080     0.9427 H
62 H62    -7.5795    -3.5388    -1.7027 H
63 H63    -5.1062    -3.2731    -1.7333 H
64 H64    -5.3289    -0.9211     1.8559 H
65 H65    -7.7886    -1.1671     1.8685 H
66 H66     4.8147    -1.0871    -1.9633 H
67 H67     7.2680    -1.2926    -2.0927 H
68 H68     4.8227    -3.2221     1.7649 H
69 H69     7.2816    -3.4975     1.5950 H
70 H70     0.8108     3.2589     1.9505 H
71 H71    -1.1344     3.2739    -1.8744 H
72 H72    -0.1581     6.9910     0.0513 H
73 C73     1.0638     5.9314     2.2362 C
74 C74    -1.3828     5.9506    -2.1405 C
75 F75     0.5480     7.1672     2.4096 F
76 F76     2.3912     6.0871     2.0124 F
77 F77     0.9422     5.2722     3.4093 F
78 F78    -2.7070     6.1179    -1.9087 F
79 F79    -1.2731     5.2953    -3.3168 F
80 F80    -0.8563     7.1825    -2.3115 F
@<TRIPOS>BOND
1 1 7 Ar
2 1 9 Ar
3 1 30 1
4 2 12 Ar
5 2 14 Ar
6 2 36 1
7 3 17 Ar
8 3 19 Ar
9 3 24 1
10 4 5 Ar
11 4 8 Ar
12 4 22 Ar
13 5 6 Ar
14 5 42 1
15 6 7 Ar
16 6 43 1
17 7 8 Ar
18 9 10 Ar
19 9 13 1
20 10 11 2
21 10 44 1
22 11 12 Ar
23 11 45 1
24 12 13 1
25 14 15 Ar
26 14 18 1
27 15 16 2
28 15 46 1
29 16 17 Ar
30 16 47 1
31 17 18 1
32 19 20 Ar
33 19 23 Ar
34 20 21 Ar
35 20 48 1
36 21 22 Ar
37 21 49 1
38 22 23 Ar
39 24 25 Ar
40 24 29 Ar
41 25 26 Ar
42 25 68 1
43 26 27 Ar
44 26 69 1
45 27 28 Ar
46 27 51 1
47 28 29 Ar
48 28 67 1
49 29 66 1
50 30 31 Ar
51 30 35 Ar
52 31 32 Ar
53 31 63 1
54 32 33 Ar
55 32 62 1
56 33 34 Ar
57 33 58 1
58 34 35 Ar
59 34 65 1
60 35 64 1
61 36 37 Ar
62 36 41 Ar
63 37 38 Ar
64 37 71 1
65 38 39 Ar
66 38 74 1
67 39 40 Ar
68 39 72 1
69 40 41 Ar
70 40 73 1
71 41 70 1
72 51 52 1
73 51 53 2
74 52 54 1
75 54 55 1
76 54 56 1
77 54 57 1
78 58 59 2
79 58 60 1
80 60 61 1
81 73 75 1
82 73 76 1
83 73 77 1
84 74 78 1
85 74 79 1
86 74 80 1
