# P_F14_OH3_OPT
# Created by GaussView 6.0.16
#

#
#

@<TRIPOS>MOLECULE
Molecule Name
70 80
SMALL
NO_CHARGES


@<TRIPOS>ATOM
1 C1    -3.3576    -1.2951    -0.0030 C
2 C2     0.0003     2.2762     0.0029 C
3 C3     3.3563    -1.2967     0.0019 C
4 C4    -0.7017    -3.6726    -0.0313 C
5 C5    -1.7781    -4.5887     0.0131 C
6 C6    -2.9439    -3.8390     0.0159 C
7 C7    -2.5830    -2.4596    -0.0271 C
8 N8    -1.2116    -2.3937    -0.0843 N
9 C9    -2.7595    -0.0343     0.0022 C
10 C10    -3.4499     1.2185     0.0007 C
11 C11    -2.5202     2.2176     0.0078 C
12 C12    -1.2258     1.6094     0.0013 C
13 N13    -1.3851     0.2335    -0.0050 N
14 C14     1.2260     1.6088     0.0030 C
15 C15     2.5208     2.2164    -0.0020 C
16 C16     3.4499     1.2168     0.0024 C
17 C17     2.7588    -0.0357    -0.0014 C
18 N18     1.3846     0.2328     0.0064 N
19 C19     2.5812    -2.4608     0.0255 C
20 C20     2.9414    -3.8404    -0.0175 C
21 C21     1.7753    -4.5895    -0.0143 C
22 C22     0.6993    -3.6730     0.0300 C
23 N23     1.2098    -2.3943     0.0827 N
24 C24     4.8339    -1.4165    -0.0312 C
25 C25     5.5361    -2.0287     1.0123 C
26 C26     6.9192    -2.1719     0.9900 C
27 C27     7.6423    -1.6880    -0.0955 C
28 C28     6.9759    -1.0706    -1.1493 C
29 C29     5.5908    -0.9495    -1.1116 C
30 F30     4.8763    -2.4962     2.0826 F
31 F31     7.5575    -2.7603     2.0089 F
32 F32     7.6687    -0.6110    -2.1982 F
33 F33     4.9864    -0.3625    -2.1534 F
34 C34    -4.8352    -1.4147     0.0291 C
35 C35    -5.5367    -2.0264    -1.0154 C
36 C36    -6.9197    -2.1699    -0.9942 C
37 C37    -7.6438    -1.6868     0.0910 C
38 C38    -6.9783    -1.0699     1.1456 C
39 C39    -5.5932    -0.9485     1.1091 C
40 F40    -4.8760    -2.4930    -2.0855 F
41 F41    -7.5570    -2.7577    -2.0141 F
42 F42    -7.6719    -0.6109     2.1942 F
43 F43    -4.9898    -0.3620     2.1518 F
44 C44     0.0007     3.7628     0.0035 C
45 C45    -0.4972     4.5015    -1.0744 C
46 C46    -0.5002     5.8882    -1.0663 C
47 C47     0.0095     6.6121     0.0129 C
48 C48     0.5169     5.8906     1.0953 C
49 C49     0.5005     4.5011     1.0823 C
50 H50    -1.6888    -5.6655     0.0525 H
51 H51    -3.9572    -4.2131     0.0558 H
52 H52    -4.5247     1.3244    -0.0138 H
53 H53    -2.6995     3.2821     0.0214 H
54 H54     2.7007     3.2808    -0.0117 H
55 H55     4.5248     1.3220     0.0179 H
56 H56     3.9545    -4.2150    -0.0569 H
57 H57     1.6855    -5.6663    -0.0537 H
58 F58    -0.9869     6.5856    -2.1184 F
59 F59     1.0102     6.5460     2.1572 F
60 F60     0.9952     3.8628     2.1543 F
61 F61    -0.9959     3.8738    -2.1506 F
62 F62    -8.9733    -1.8141     0.1201 F
63 F63     8.9718    -1.8151    -0.1258 F
64 O64     0.0242     7.9630     0.0395 O
65 H65    -0.3601     8.2873    -0.7945 H
66 P66    -0.0004    -0.9989     0.0001 P
67 O67     0.1131    -0.9343    -1.6839 O
68 H68    -0.6218    -1.4338    -2.0773 H
69 O69    -0.1146    -0.9363     1.6838 O
70 H70     0.6231    -1.4315     2.0775 H
@<TRIPOS>BOND
1 1 7 Ar
2 1 9 Ar
3 1 34 1
4 2 12 Ar
5 2 14 Ar
6 2 44 1
7 3 17 Ar
8 3 19 Ar
9 3 24 1
10 4 5 Ar
11 4 8 Ar
12 4 22 Ar
13 5 6 Ar
14 5 50 1
15 6 7 Ar
16 6 51 1
17 7 8 Ar
18 8 66 1
19 9 10 Ar
20 9 13 1
21 10 11 2
22 10 52 1
23 11 12 Ar
24 11 53 1
25 12 13 1
26 13 66 1
27 14 15 Ar
28 14 18 1
29 15 16 2
30 15 54 1
31 16 17 Ar
32 16 55 1
33 17 18 1
34 18 66 1
35 19 20 Ar
36 19 23 Ar
37 20 21 Ar
38 20 56 1
39 21 22 Ar
40 21 57 1
41 22 23 Ar
42 23 66 1
43 24 25 Ar
44 24 29 Ar
45 25 26 Ar
46 25 30 1
47 26 27 Ar
48 26 31 1
49 27 28 Ar
50 27 63 1
51 28 29 Ar
52 28 32 1
53 29 33 1
54 34 35 Ar
55 34 39 Ar
56 35 36 Ar
57 35 40 1
58 36 37 Ar
59 36 41 1
60 37 38 Ar
61 37 62 1
62 38 39 Ar
63 38 42 1
64 39 43 1
65 44 45 Ar
66 44 49 Ar
67 45 46 Ar
68 45 61 1
69 46 47 Ar
70 46 58 1
71 47 48 Ar
72 47 64 1
73 48 49 Ar
74 48 59 1
75 49 60 1
76 64 65 1
77 66 67 1
78 66 69 1
79 67 68 1
80 69 70 1
