# P_F14_OPT
# Created by GaussView 6.0.16
#

#
#

@<TRIPOS>MOLECULE
Molecule Name
67 77
SMALL
NO_CHARGES


@<TRIPOS>ATOM
1 C1     3.3511    -0.8773     0.0006 C
2 C2    -0.0001     2.6995    -0.0003 C
3 C3    -3.3509    -0.8777    -0.0008 C
4 C4     0.6986    -3.2465     0.0015 C
5 C5     2.5750    -2.0353    -0.0003 C
6 N6     1.2026    -1.9646     0.0100 N
7 C7     2.7455     0.3763     0.0096 C
8 C8     3.4350     1.6252     0.0203 C
9 C9     2.5084     2.6265     0.0105 C
10 C10     1.2159     2.0243     0.0059 C
11 N11     1.3633     0.6400     0.0073 N
12 C12    -1.2161     2.0242    -0.0065 C
13 C13    -2.5087     2.6263    -0.0108 C
14 C14    -3.4352     1.6249    -0.0202 C
15 C15    -2.7455     0.3760    -0.0097 C
16 N16    -1.3633     0.6398    -0.0077 N
17 C17    -2.5748    -2.0356    -0.0007 C
18 C18    -0.6984    -3.2466    -0.0035 C
19 N19    -1.2025    -1.9648    -0.0115 N
20 C20    -4.8294    -0.9929     0.0142 C
21 C21    -5.5216    -1.6020    -1.0378 C
22 C22    -6.9057    -1.7395    -1.0296 C
23 C23    -7.6385    -1.2535     0.0485 C
24 C24    -6.9813    -0.6395     1.1101 C
25 C25    -5.5956    -0.5238     1.0867 C
26 F26    -4.8525    -2.0731    -2.0991 F
27 F27    -7.5356    -2.3252    -2.0550 F
28 F28    -7.6834    -0.1770     2.1515 F
29 F29    -4.9990     0.0624     2.1339 F
30 C30     4.8295    -0.9925    -0.0138 C
31 C31     5.5213    -1.6019     1.0383 C
32 C32     6.9054    -1.7396     1.0305 C
33 C33     7.6386    -1.2535    -0.0472 C
34 C34     6.9819    -0.6391    -1.1089 C
35 C35     5.5961    -0.5233    -1.0860 C
36 F36     4.8518    -2.0731     2.0992 F
37 F37     7.5348    -2.3256     2.0560 F
38 F38     7.6844    -0.1765    -2.1500 F
39 F39     5.0000     0.0632    -2.1333 F
40 C40    -0.0002     4.1862    -0.0002 C
41 C41     0.4835     4.9325     1.0801 C
42 C42     0.4987     6.3205     1.1039 C
43 C43    -0.0005     7.0120     0.0002 C
44 C44    -0.4995     6.3207    -1.1036 C
45 C45    -0.4841     4.9327    -1.0803 C
46 H46     4.5099     1.7266     0.0410 H
47 H47     2.6866     3.6911     0.0033 H
48 H48    -2.6869     3.6909    -0.0036 H
49 H49    -4.5101     1.7261    -0.0409 H
50 F50    -0.9648     4.2660    -2.1496 F
51 F51     0.9644     4.2655     2.1492 F
52 F52     8.9687    -1.3754    -0.0624 F
53 F53    -8.9686    -1.3752     0.0642 F
54 P54     0.0001    -0.5947    -0.0004 P
55 H55     0.8885     6.8329     1.9761 H
56 H56    -0.8895     6.8333    -1.9758 H
57 H57    -0.0006     8.0973     0.0004 H
58 F58    -0.0121    -0.5720     1.6429 F
59 F59     0.0122    -0.5713    -1.6437 F
60 C60    -2.9366    -3.4137     0.0156 C
61 H61    -3.9510    -3.7856     0.0330 H
62 C62    -1.7721    -4.1632     0.0113 C
63 H63    -1.6806    -5.2403     0.0211 H
64 C64     1.7725    -4.1630    -0.0131 C
65 H65     1.6810    -5.2401    -0.0232 H
66 C66     2.9369    -3.4134    -0.0165 C
67 H67     3.9513    -3.7854    -0.0338 H
@<TRIPOS>BOND
1 1 5 Ar
2 1 7 Ar
3 1 30 1
4 2 10 Ar
5 2 12 Ar
6 2 40 1
7 3 15 Ar
8 3 17 Ar
9 3 20 1
10 4 6 Ar
11 4 18 Ar
12 4 64 Ar
13 5 6 Ar
14 5 66 Ar
15 6 54 1
16 7 8 Ar
17 7 11 1
18 8 9 2
19 8 46 1
20 9 10 Ar
21 9 47 1
22 10 11 1
23 11 54 1
24 12 13 Ar
25 12 16 1
26 13 14 2
27 13 48 1
28 14 15 Ar
29 14 49 1
30 15 16 1
31 16 54 1
32 17 19 Ar
33 17 60 Ar
34 18 19 Ar
35 18 62 Ar
36 19 54 1
37 20 21 Ar
38 20 25 Ar
39 21 22 Ar
40 21 26 1
41 22 23 Ar
42 22 27 1
43 23 24 Ar
44 23 53 1
45 24 25 Ar
46 24 28 1
47 25 29 1
48 30 31 Ar
49 30 35 Ar
50 31 32 Ar
51 31 36 1
52 32 33 Ar
53 32 37 1
54 33 34 Ar
55 33 52 1
56 34 35 Ar
57 34 38 1
58 35 39 1
59 40 41 Ar
60 40 45 Ar
61 41 42 Ar
62 41 51 1
63 42 43 Ar
64 42 55 1
65 43 44 Ar
66 43 57 1
67 44 45 Ar
68 44 56 1
69 45 50 1
70 54 58 1
71 54 59 1
72 60 61 1
73 60 62 2
74 62 63 1
75 64 65 1
76 64 66 2
77 66 67 1
