# P_F17_OPT
# Created by GaussView 6.0.16
#

#
#

@<TRIPOS>MOLECULE
Molecule Name
67 77
SMALL
NO_CHARGES


@<TRIPOS>ATOM
1 C1     3.3514    -1.2972    -0.0128 C
2 C2    -0.0001     2.2772    -0.0004 C
3 C3    -3.3512    -1.2975     0.0125 C
4 C4     0.6987    -3.6651    -0.0016 C
5 C5     2.5750    -2.4547    -0.0111 C
6 N6     1.2027    -2.3835     0.0051 N
7 C7     2.7466    -0.0435    -0.0001 C
8 C8     3.4368     1.2046     0.0095 C
9 C9     2.5107     2.2065     0.0034 C
10 C10     1.2179     1.6046     0.0026 C
11 N11     1.3641     0.2212     0.0023 N
12 C12    -1.2180     1.6045    -0.0033 C
13 C13    -2.5109     2.2062    -0.0037 C
14 C14    -3.4369     1.2043    -0.0093 C
15 C15    -2.7465    -0.0438    -0.0001 C
16 N16    -1.3640     0.2210    -0.0029 N
17 C17    -2.5747    -2.4550     0.0102 C
18 C18    -0.6983    -3.6652    -0.0004 C
19 N19    -1.2024    -2.3837    -0.0066 N
20 C20    -4.8297    -1.4128     0.0359 C
21 C21    -5.5278    -2.0210    -1.0125 C
22 C22    -6.9118    -2.1580    -0.9963 C
23 C23    -7.6379    -1.6726     0.0867 C
24 C24    -6.9745    -1.0595     1.1450 C
25 C25    -5.5889    -0.9440     1.1134 C
26 F26    -4.8643    -2.4917    -2.0775 F
27 F27    -7.5478    -2.7429    -2.0180 F
28 F28    -7.6701    -0.5976     2.1906 F
29 F29    -4.9853    -0.3583     2.1569 F
30 C30     4.8299    -1.4124    -0.0355 C
31 C31     5.5276    -2.0205     1.0133 C
32 C32     6.9116    -2.1574     0.9976 C
33 C33     7.6382    -1.6722    -0.0851 C
34 C34     6.9751    -1.0592    -1.1438 C
35 C35     5.5895    -0.9437    -1.1128 C
36 F36     4.8636    -2.4910     2.0780 F
37 F37     7.5472    -2.7422     2.0197 F
38 F38     7.6712    -0.5975    -2.1892 F
39 F39     4.9864    -0.3582    -2.1566 F
40 C40    -0.0002     3.7636    -0.0003 C
41 C41     0.4972     4.4963     1.0822 C
42 C42     0.5096     5.8871     1.0901 C
43 C43    -0.0006     6.5851     0.0000 C
44 C44    -0.5106     5.8872    -1.0902 C
45 C45    -0.4978     4.4964    -1.0826 C
46 H46     4.5118     1.3057     0.0276 H
47 H47     2.6927     3.2704    -0.0042 H
48 H48    -2.6930     3.2701     0.0039 H
49 H49    -4.5119     1.3053    -0.0270 H
50 F50    -0.9897     3.8597    -2.1546 F
51 F51     0.9893     3.8595     2.1540 F
52 F52     8.9678    -1.7936    -0.1082 F
53 F53    -8.9676    -1.7941     0.1103 F
54 P54     0.0001    -1.0142    -0.0005 P
55 F55    -0.0057    -0.9899     1.6422 F
56 F56     0.0059    -0.9894    -1.6432 F
57 F57     0.9958     6.5555     2.1426 F
58 F58    -0.9970     6.5557    -2.1426 F
59 F59    -0.0007     7.9207     0.0002 F
60 C60    -2.9361    -3.8332     0.0282 C
61 H61    -3.9504    -4.2054     0.0497 H
62 C62    -1.7718    -4.5824     0.0193 C
63 H63    -1.6797    -5.6593     0.0289 H
64 C64     1.7723    -4.5822    -0.0211 C
65 H65     1.6803    -5.6591    -0.0311 H
66 C66     2.9366    -3.8330    -0.0292 C
67 H67     3.9508    -4.2050    -0.0505 H
@<TRIPOS>BOND
1 1 5 Ar
2 1 7 Ar
3 1 30 1
4 2 10 Ar
5 2 12 Ar
6 2 40 1
7 3 15 Ar
8 3 17 Ar
9 3 20 1
10 4 6 Ar
11 4 18 Ar
12 4 64 Ar
13 5 6 Ar
14 5 66 Ar
15 6 54 1
16 7 8 Ar
17 7 11 1
18 8 9 2
19 8 46 1
20 9 10 Ar
21 9 47 1
22 10 11 1
23 11 54 1
24 12 13 Ar
25 12 16 1
26 13 14 2
27 13 48 1
28 14 15 Ar
29 14 49 1
30 15 16 1
31 16 54 1
32 17 19 Ar
33 17 60 Ar
34 18 19 Ar
35 18 62 Ar
36 19 54 1
37 20 21 Ar
38 20 25 Ar
39 21 22 Ar
40 21 26 1
41 22 23 Ar
42 22 27 1
43 23 24 Ar
44 23 53 1
45 24 25 Ar
46 24 28 1
47 25 29 1
48 30 31 Ar
49 30 35 Ar
50 31 32 Ar
51 31 36 1
52 32 33 Ar
53 32 37 1
54 33 34 Ar
55 33 52 1
56 34 35 Ar
57 34 38 1
58 35 39 1
59 40 41 Ar
60 40 45 Ar
61 41 42 Ar
62 41 51 1
63 42 43 Ar
64 42 57 1
65 43 44 Ar
66 43 59 1
67 44 45 Ar
68 44 58 1
69 45 50 1
70 54 55 1
71 54 56 1
72 60 61 1
73 60 62 2
74 62 63 1
75 64 65 1
76 64 66 2
77 66 67 1
