# page9_2
# Created by GaussView 6.0.16
#

#
#

@<TRIPOS>MOLECULE
Molecule Name
70 80
SMALL
NO_CHARGES


@<TRIPOS>ATOM
1 C1     3.1306    -0.5987    -0.0022 C
2 C2    -0.6592     2.5069    -0.0474 C
3 C3    -3.5171    -1.4710     0.0374 C
4 C4     0.8031    -3.2930    -0.0573 C
5 C5     1.9658    -4.0774    -0.0682 C
6 C6     3.0415    -3.1996    -0.0482 C
7 C7     2.5272    -1.8598    -0.0218 C
8 N8     1.1546    -1.9630    -0.0324 N
9 C9     2.3563     0.5556    -0.0051 C
10 C10     2.8835     1.8846    -0.0265 C
11 C11     1.8386     2.7586    -0.0590 C
12 C12     0.6317     1.9964    -0.0438 C
13 N13     0.9534     0.6431    -0.0127 N
14 C14    -1.7802     1.6817    -0.0179 C
15 C15    -3.1384     2.1122     0.0087 C
16 C16    -3.9272     0.9986     0.0334 C
17 C17    -3.0812    -0.1491     0.0286 C
18 N18    -1.7439     0.2921    -0.0039 N
19 C19    -2.5981    -2.5170    -0.0017 C
20 C20    -2.7767    -3.9307    -0.0031 C
21 C21    -1.5251    -4.5220    -0.0380 C
22 C22    -0.5833    -3.4709    -0.0551 C
23 N23    -1.2450    -2.2676    -0.0362 N
24 C24    -4.9678    -1.7768     0.0874 C
25 C25    -5.6041    -2.4534    -0.9581 C
26 C26    -6.9588    -2.7658    -0.9177 C
27 C27    -7.7177    -2.3909     0.1867 C
28 C28    -7.1154    -1.7131     1.2423 C
29 C29    -5.7569    -1.4210     1.1859 C
30 C30     4.6094    -0.4441     0.0091 C
31 C31     5.3437    -0.5553     1.1896 C
32 C32     6.7271    -0.4146     1.2073 C
33 C33     7.4039    -0.1461     0.0221 C
34 C34     6.6966    -0.0226    -1.1705 C
35 C35     5.3152    -0.1730    -1.1645 C
36 C36    -0.8519     3.9798    -0.0737 C
37 C37    -0.4548     4.7887     0.9954 C
38 C38    -0.6234     6.1693     0.9782 C
39 C39    -1.2184     6.7751    -0.1243 C
40 C40    -1.6321     5.9977    -1.2017 C
41 C41    -1.4411     4.6205    -1.1680 C
42 H42     3.9376     2.1181    -0.0226 H
43 H43     1.8813     3.8368    -0.0967 H
44 H44    -3.4559     3.1440     0.0144 H
45 H45    -5.0063     0.9605     0.0427 H
46 H46    -3.7334    -4.4321     0.0262 H
47 P47    -0.2303    -0.7546    -0.0197 P
48 F48    -0.2327    -0.7244    -1.6605 F
49 F49    -0.2248    -0.7584     1.6211 F
50 F50     8.7319    -0.0055     0.0276 F
51 F51     7.3491     0.2361    -2.3103 F
52 F52     4.6585    -0.0539    -2.3255 F
53 F53     7.4075    -0.5346     2.3534 F
54 F54     4.7193    -0.8177     2.3436 F
55 F55    -4.9073    -2.8206    -2.0421 F
56 F56    -7.5357    -3.4132    -1.9363 F
57 F57    -9.0199    -2.6807     0.2338 F
58 F58    -7.8420    -1.3563     2.3075 F
59 F59    -5.2091    -0.7775     2.2259 F
60 F60    -2.1997     6.5781    -2.2652 F
61 F61    -1.8470     3.9041    -2.2253 F
62 F62    -1.3912     8.0988    -0.1487 F
63 F63    -0.2272     6.9144     2.0164 F
64 F64     0.1147     4.2386     2.0767 F
65 H65    -1.2923    -5.5774    -0.0465 H
66 H66     2.0085    -5.1559    -0.0903 H
67 C67     4.4588    -3.6645    -0.0400 C
68 F68     4.5204    -5.0057    -0.1850 F
69 F69     5.0989    -3.3693     1.1189 F
70 F70     5.1982    -3.1277    -1.0400 F
@<TRIPOS>BOND
1 1 7 Ar
2 1 9 Ar
3 1 30 1
4 2 12 Ar
5 2 14 Ar
6 2 36 1
7 3 17 Ar
8 3 19 Ar
9 3 24 1
10 4 5 Ar
11 4 8 Ar
12 4 22 Ar
13 5 6 Ar
14 5 66 1
15 6 7 Ar
16 6 67 1
17 7 8 Ar
18 8 47 1
19 9 10 Ar
20 9 13 1
21 10 11 2
22 10 42 1
23 11 12 Ar
24 11 43 1
25 12 13 1
26 13 47 1
27 14 15 Ar
28 14 18 1
29 15 16 2
30 15 44 1
31 16 17 Ar
32 16 45 1
33 17 18 1
34 18 47 1
35 19 20 Ar
36 19 23 Ar
37 20 21 2
38 20 46 1
39 21 22 Ar
40 21 65 1
41 22 23 Ar
42 23 47 1
43 24 25 Ar
44 24 29 Ar
45 25 26 Ar
46 25 55 1
47 26 27 Ar
48 26 56 1
49 27 28 Ar
50 27 57 1
51 28 29 Ar
52 28 58 1
53 29 59 1
54 30 31 Ar
55 30 35 Ar
56 31 32 Ar
57 31 54 1
58 32 33 Ar
59 32 53 1
60 33 34 Ar
61 33 50 1
62 34 35 Ar
63 34 51 1
64 35 52 1
65 36 37 Ar
66 36 41 Ar
67 37 38 Ar
68 37 64 1
69 38 39 Ar
70 38 63 1
71 39 40 Ar
72 39 62 1
73 40 41 Ar
74 40 60 1
75 41 61 1
76 47 48 1
77 47 49 1
78 67 68 1
79 67 69 1
80 67 70 1
