# page9_3
# Created by GaussView 6.0.16
#

#
#

@<TRIPOS>MOLECULE
Molecule Name
70 79
SMALL
NO_CHARGES


@<TRIPOS>ATOM
1 C1    -3.7419    -1.2881     0.0368 C
2 C2    -0.3250     2.2145    -0.0853 C
3 C3     2.9681    -1.4248    -0.0330 C
4 C4    -1.1385    -3.7062    -0.0532 C
5 C5    -2.2290    -4.6029    -0.0118 C
6 C6    -3.3768    -3.8314     0.0261 C
7 C7    -2.9885    -2.4596     0.0047 C
8 N8    -1.6164    -2.4140    -0.0473 N
9 C9    -3.1104    -0.0479     0.0103 C
10 C10    -3.7778     1.2137     0.0043 C
11 C11    -2.8341     2.1972    -0.0287 C
12 C12    -1.5533     1.5692    -0.0507 C
13 N13    -1.7241     0.1895    -0.0263 N
14 C14     0.8821     1.5183    -0.0885 C
15 C15     2.1652     2.1167    -0.1243 C
16 C16     3.1022     1.1211    -0.0960 C
17 C17     2.4158    -0.1439    -0.0526 C
18 N18     1.0292     0.1385    -0.0515 N
19 C19     2.1503    -2.5509    -0.0448 C
20 C20     2.4899    -3.9380    -0.0381 C
21 C21     1.3155    -4.6677    -0.0529 C
22 C22     0.2564    -3.7324    -0.0664 C
23 N23     0.7822    -2.4593    -0.0661 N
24 C24     4.4313    -1.6853     0.0250 C
25 C25     5.0996    -1.7494     1.2474 C
26 C26     6.4527    -2.0575     1.3265 C
27 C27     7.1630    -2.3232     0.1598 C
28 C28     6.5199    -2.2763    -1.0735 C
29 C29     5.1664    -1.9638    -1.1272 C
30 C30    -5.2208    -1.3716     0.1084 C
31 C31    -5.9664    -1.9672    -0.9140 C
32 C32    -7.3517    -2.0742    -0.8508 C
33 C33    -8.0299    -1.5700     0.2547 C
34 C34    -7.3182    -0.9689     1.2884 C
35 C35    -5.9324    -0.8836     1.2099 C
36 C36    -0.2953     3.7005    -0.1157 C
37 C37    -0.7891     4.4188    -1.2092 C
38 C38    -0.7753     5.8091    -1.2455 C
39 C39    -0.2432     6.5191    -0.1735 C
40 C40     0.2641     5.8347     0.9267 C
41 C41     0.2262     4.4446     0.9473 C
42 H42    -4.8509     1.3341     0.0105 H
43 H43    -2.9946     3.2647    -0.0304 H
44 H44     2.3548     3.1762    -0.1754 H
45 H45     3.4994    -4.3231    -0.0236 H
46 P46    -0.3821    -1.0721    -0.0463 P
47 F47    -0.3647    -1.0489     1.5942 F
48 F48    -0.3914    -1.0224    -1.6860 F
49 F49    -9.3599    -1.6622     0.3239 F
50 F50    -7.9680    -0.4905     2.3554 F
51 F51    -5.2804    -0.3102     2.2305 F
52 F52    -8.0344    -2.6473    -1.8483 F
53 F53    -5.3482    -2.4543    -1.9987 F
54 F54     4.4377    -1.4937     2.3820 F
55 F55     7.0732    -2.1023     2.5116 F
56 F56     8.4632    -2.6216     0.2236 F
57 F57     7.2058    -2.5293    -2.1951 F
58 F58     4.5713    -1.9186    -2.3253 F
59 F59     0.7710     6.5153     1.9606 F
60 F60     0.7171     3.8185     2.0256 F
61 F61    -0.2202     7.8537    -0.2007 F
62 F62    -1.2587     6.4651    -2.3064 F
63 F63    -1.3026     3.7679    -2.2621 F
64 H64     1.2053    -5.7430    -0.0526 H
65 H65    -2.1576    -5.6814    -0.0077 H
66 H66    -4.3974    -4.1833     0.0694 H
67 C67     4.5642     1.4322    -0.1399 C
68 F68     5.1898     0.8772    -1.2044 F
69 F69     4.7572     2.7661    -0.2339 F
70 F70     5.2269     1.0268     0.9689 F
@<TRIPOS>BOND
1 1 7 Ar
2 1 9 Ar
3 1 30 1
4 2 12 Ar
5 2 14 Ar
6 2 36 1
7 3 17 Ar
8 3 19 Ar
9 3 24 1
10 4 5 Ar
11 4 8 Ar
12 4 22 Ar
13 5 6 2
14 5 65 1
15 6 7 Ar
16 6 66 1
17 7 8 Ar
18 8 46 1
19 9 10 Ar
20 9 13 1
21 10 11 2
22 10 42 1
23 11 12 Ar
24 11 43 1
25 12 13 1
26 13 46 1
27 14 15 Ar
28 14 18 1
29 15 16 2
30 15 44 1
31 16 17 Ar
32 16 67 1
33 17 18 1
34 19 20 Ar
35 19 23 Ar
36 20 21 2
37 20 45 1
38 21 22 Ar
39 21 64 1
40 22 23 Ar
41 23 46 1
42 24 25 Ar
43 24 29 Ar
44 25 26 Ar
45 25 54 1
46 26 27 Ar
47 26 55 1
48 27 28 Ar
49 27 56 1
50 28 29 Ar
51 28 57 1
52 29 58 1
53 30 31 Ar
54 30 35 Ar
55 31 32 Ar
56 31 53 1
57 32 33 Ar
58 32 52 1
59 33 34 Ar
60 33 49 1
61 34 35 Ar
62 34 50 1
63 35 51 1
64 36 37 Ar
65 36 41 Ar
66 37 38 Ar
67 37 63 1
68 38 39 Ar
69 38 62 1
70 39 40 Ar
71 39 61 1
72 40 41 Ar
73 40 59 1
74 41 60 1
75 46 47 1
76 46 48 1
77 67 68 1
78 67 69 1
79 67 70 1
