# Ga_tpfc_py_TD
# Created by GaussView 6.0.16
#

#
#

@<TRIPOS>MOLECULE
Molecule Name
87 97
SMALL
NO_CHARGES


@<TRIPOS>ATOM
1 C1     3.3436    -1.3838    -0.1891 C
2 C2     0.6285     2.7142    -0.4275 C
3 C3    -3.2838    -0.2675    -0.1977 C
4 C4     0.3320    -3.3157     0.0256 C
5 C5     1.2444    -4.4035    -0.1078 C
6 C6     2.5251    -3.8624    -0.1650 C
7 C7     2.4000    -2.4349    -0.0712 C
8 N8     1.0732    -2.1604     0.0781 N
9 C9     2.9982    -0.0167    -0.2702 C
10 C10     3.8981     1.1022    -0.3758 C
11 C11     3.1499     2.2506    -0.4364 C
12 C12     1.7625     1.8728    -0.3782 C
13 N13     1.7052     0.4987    -0.2655 N
14 C14    -0.7205     2.2888    -0.4115 C
15 C15    -1.9018     3.0871    -0.5931 C
16 C16    -2.9873     2.2476    -0.5249 C
17 C17    -2.5091     0.9119    -0.2916 C
18 N18    -1.1209     0.9825    -0.2207 N
19 C19    -2.7387    -1.5662    -0.0660 C
20 C20    -3.3294    -2.8749    -0.0901 C
21 C21    -2.3011    -3.8120    -0.0526 C
22 C22    -1.0768    -3.0725     0.0193 C
23 N23    -1.3898    -1.7394     0.0342 N
24 C24    -4.7619    -0.1441    -0.2849 C
25 C25    -5.4888    -0.7298    -1.3275 C
26 C26    -6.8754    -0.6437    -1.4015 C
27 C27    -7.5758     0.0534    -0.4222 C
28 C28    -6.8837     0.6533     0.6249 C
29 C29    -5.4985     0.5439     0.6850 C
30 F30    -4.8545    -1.3963    -2.3036 F
31 F31    -7.5380    -1.2150    -2.4154 F
32 F32    -8.9078     0.1472    -0.4874 F
33 F33    -7.5552     1.3196     1.5735 F
34 F34    -4.8719     1.1207     1.7224 F
35 C35     0.8595     4.1819    -0.4715 C
36 C36     0.4628     4.9978     0.5934 C
37 C37     0.6522     6.3750     0.5850 C
38 C38     1.2680     6.9749    -0.5095 C
39 C39     1.6819     6.1930    -1.5834 C
40 C40     1.4696     4.8177    -1.5566 C
41 F41    -0.1180     4.4542     1.6784 F
42 F42     0.2593     7.1238     1.6241 F
43 F43     1.4625     8.2973    -0.5276 F
44 F44     2.2690     6.7693    -2.6398 F
45 F45     1.8710     4.1020    -2.6164 F
46 C46     4.7765    -1.7611    -0.2730 C
47 C47     5.5566    -1.4842    -1.4014 C
48 C48     6.8942    -1.8576    -1.4851 C
49 C49     7.4865    -2.5423    -0.4286 C
50 C50     6.7370    -2.8427     0.7045 C
51 C51     5.4046    -2.4500     0.7707 C
52 F52     5.0214    -0.8476    -2.4527 F
53 F53     7.6103    -1.5772    -2.5815 F
54 F54     8.7696    -2.9101    -0.5017 F
55 F55     7.3051    -3.4960     1.7270 F
56 F56     4.7228    -2.7436     1.8892 F
57 Ga57     0.0892    -0.4733     0.2267 Ga
58 H58     0.9837    -5.4515    -0.1743 H
59 H59     4.9767     1.0343    -0.3996 H
60 H60     3.5228     3.2612    -0.5238 H
61 H61    -1.9140     4.1506    -0.7867 H
62 H62    -4.0249     2.5226    -0.6531 H
63 H63     3.4491    -4.4096    -0.2961 H
64 C64    -2.4402    -5.3069    -0.0799 C
65 H65    -4.3815    -3.1081    -0.1688 H
66 H66    -1.5382    -5.7538    -0.5447 H
67 H67    -2.4717    -5.6888     0.9496 H
68 N68    -3.6643    -5.7453    -0.7466 N
69 C69    -3.6306    -5.4813    -2.1801 C
70 C70    -3.9306    -7.1511    -0.4827 C
71 H71    -4.5832    -5.7829    -2.6285 H
72 H72    -3.4908    -4.4129    -2.3633 H
73 H73    -2.8185    -6.0301    -2.6966 H
74 H74    -3.1454    -7.8258    -0.8777 H
75 H75    -4.0104    -7.3200     0.5970 H
76 H76    -4.8815    -7.4375    -0.9448 H
77 N77     0.1668    -0.1824     2.3396 N
78 C78    -0.1014     1.0246     2.8714 C
79 C79     0.5219    -1.1983     3.1464 C
80 C80    -0.0221     1.2565     4.2389 C
81 H81    -0.3779     1.8092     2.1773 H
82 C82     0.6174    -1.0436     4.5238 C
83 H83     0.7341    -2.1420     2.6572 H
84 C84     0.3415     0.2053     5.0802 C
85 H85    -0.2425     2.2443     4.6283 H
86 H86     0.9052    -1.8874     5.1411 H
87 H87     0.4103     0.3575     6.1529 H
@<TRIPOS>BOND
1 1 7 Ar
2 1 9 Ar
3 1 46 1
4 2 12 Ar
5 2 14 Ar
6 2 35 1
7 3 17 Ar
8 3 19 Ar
9 3 24 1
10 4 5 Ar
11 4 8 Ar
12 4 22 Ar
13 5 6 Ar
14 5 58 1
15 6 7 Ar
16 6 63 1
17 7 8 Ar
18 8 57 1
19 9 10 Ar
20 9 13 1
21 10 11 2
22 10 59 1
23 11 12 Ar
24 11 60 1
25 12 13 Ar
26 13 57 1
27 14 15 Ar
28 14 18 Ar
29 15 16 2
30 15 61 1
31 16 17 Ar
32 16 62 1
33 17 18 1
34 18 57 1
35 19 20 Ar
36 19 23 Ar
37 20 21 Ar
38 20 65 1
39 21 22 Ar
40 21 64 1
41 22 23 Ar
42 23 57 1
43 24 25 Ar
44 24 29 Ar
45 25 26 Ar
46 25 30 1
47 26 27 Ar
48 26 31 1
49 27 28 Ar
50 27 32 1
51 28 29 Ar
52 28 33 1
53 29 34 1
54 35 36 Ar
55 35 40 Ar
56 36 37 Ar
57 36 41 1
58 37 38 Ar
59 37 42 1
60 38 39 Ar
61 38 43 1
62 39 40 Ar
63 39 44 1
64 40 45 1
65 46 47 Ar
66 46 51 Ar
67 47 48 Ar
68 47 52 1
69 48 49 Ar
70 48 53 1
71 49 50 Ar
72 49 54 1
73 50 51 Ar
74 50 55 1
75 51 56 1
76 64 66 1
77 64 67 1
78 64 68 1
79 68 69 1
80 68 70 1
81 69 71 1
82 69 72 1
83 69 73 1
84 70 74 1
85 70 75 1
86 70 76 1
87 77 78 Ar
88 77 79 Ar
89 78 80 Ar
90 78 81 1
91 79 82 Ar
92 79 83 1
93 80 84 Ar
94 80 85 1
95 82 84 Ar
96 82 86 1
97 84 87 1
