# page9_7
# Created by GaussView 6.0.16
#

#
#

@<TRIPOS>MOLECULE
Molecule Name
79 89
SMALL
NO_CHARGES


@<TRIPOS>ATOM
1 C1    -3.3321    -0.1409     0.2051 C
2 C2    -0.0460     3.4709    -0.0831 C
3 C3     3.3627    -0.0380    -0.0603 C
4 C4    -0.6661    -2.4847    -0.1899 C
5 C5    -1.7297    -3.4000    -0.3259 C
6 C6    -2.9120    -2.6821    -0.1042 C
7 C7    -2.5645    -1.3100     0.0647 C
8 N8    -1.1891    -1.2284    -0.0037 N
9 C9    -2.7288     1.1033     0.1937 C
10 C10    -3.4421     2.3453     0.2403 C
11 C11    -2.5411     3.3577     0.1312 C
12 C12    -1.2416     2.7726     0.0229 C
13 N13    -1.3573     1.3901     0.0707 N
14 C14     1.1753     2.8112    -0.1155 C
15 C15     2.4608     3.4353    -0.1294 C
16 C16     3.3979     2.4526    -0.0719 C
17 C17     2.7232     1.1886    -0.0593 C
18 N18     1.3381     1.4323    -0.0854 N
19 C19     2.6222    -1.2325    -0.1145 C
20 C20     2.9994    -2.6063    -0.1096 C
21 C21     1.8273    -3.3729    -0.0685 C
22 C22     0.7469    -2.4718    -0.1508 C
23 N23     1.2435    -1.1908    -0.1467 N
24 C24     4.8443    -0.0333     0.0591 C
25 C25     5.4676    -0.3783     1.2580 C
26 C26     6.8525    -0.3894     1.3850 C
27 C27     7.6429    -0.0333     0.2973 C
28 C28     7.0468     0.3305    -0.9078 C
29 C29     5.6621     0.3253    -1.0141 C
30 C30    -4.8155    -0.1678     0.3103 C
31 C31    -5.6208    -0.2834    -0.8215 C
32 C32    -7.0085    -0.3050    -0.7302 C
33 C33    -7.6138    -0.1951     0.5175 C
34 C34    -6.8330    -0.0636     1.6632 C
35 C35    -5.4488    -0.0501     1.5484 C
36 C36    -0.0794     4.9558    -0.1348 C
37 C37    -0.6396     5.6300    -1.2239 C
38 C38    -0.6917     7.0186    -1.2820 C
39 C39    -0.1658     7.7698    -0.2349 C
40 C40     0.4025     7.1286     0.8621 C
41 C41     0.4329     5.7388     0.9036 C
42 H42    -4.5146     2.4247     0.3329 H
43 H43    -2.7342     4.4198     0.1356 H
44 P44     0.0084     0.1758    -0.0354 P
45 F45     0.1101     0.1314     1.5961 F
46 F46    -0.0925     0.2138    -1.6679 F
47 F47    -8.9443    -0.2123     0.6184 F
48 F48    -7.4191     0.0440     2.8606 F
49 F49    -4.7151     0.0690     2.6622 F
50 F50    -7.7590    -0.4276    -1.8299 F
51 F51    -5.0600    -0.3903    -2.0315 F
52 F52     4.7291    -0.7236     2.3193 F
53 F53     7.4242    -0.7341     2.5430 F
54 F54     8.9725    -0.0349     0.4082 F
55 F55     7.8085     0.6751    -1.9521 F
56 F56     5.1106     0.6701    -2.1853 F
57 F57     0.9038     7.8485     1.8708 F
58 F58     0.9819     5.1508     1.9756 F
59 F59    -0.2057     9.1022    -0.2831 F
60 F60    -1.2348     7.6337    -2.3374 F
61 F61    -1.1547     4.9348    -2.2466 F
62 H62     4.4703     2.5697    -0.0482 H
63 H63     2.6241     4.5012    -0.1681 H
64 C64    -4.2810    -3.2938    -0.0223 C
65 F65    -4.2212    -4.6315     0.0968 F
66 F66    -5.0426    -3.0218    -1.1062 F
67 F67    -4.9555    -2.8491     1.0641 F
68 C68     1.7516    -4.8255     0.3123 C
69 C69    -1.6379    -4.7769    -0.9245 C
70 F70     2.6892    -5.1151     1.2426 F
71 F71     1.9291    -5.6763    -0.7121 F
72 F72     0.5585    -5.1010     0.8830 F
73 F73    -0.4467    -4.9425    -1.5399 F
74 F74    -1.7933    -5.7787    -0.0433 F
75 F75    -2.5809    -4.9331    -1.8814 F
76 C76     4.3838    -3.1825    -0.2061 C
77 F77     5.1402    -2.5107    -1.1051 F
78 F78     5.0467    -3.1611     0.9720 F
79 F79     4.3549    -4.4609    -0.6251 F
@<TRIPOS>BOND
1 1 7 Ar
2 1 9 2
3 1 30 1
4 2 12 Ar
5 2 14 Ar
6 2 36 1
7 3 17 2
8 3 19 Ar
9 3 24 1
10 4 5 Ar
11 4 8 Ar
12 4 22 Ar
13 5 6 Ar
14 5 69 1
15 6 7 Ar
16 6 64 1
17 7 8 Ar
18 8 44 1
19 9 10 Ar
20 9 13 1
21 10 11 2
22 10 42 1
23 11 12 Ar
24 11 43 1
25 12 13 1
26 13 44 1
27 14 15 Ar
28 14 18 1
29 15 16 2
30 15 63 1
31 16 17 Ar
32 16 62 1
33 17 18 1
34 18 44 1
35 19 20 Ar
36 19 23 Ar
37 20 21 Ar
38 20 76 1
39 21 22 Ar
40 21 68 1
41 22 23 Ar
42 23 44 1
43 24 25 Ar
44 24 29 Ar
45 25 26 Ar
46 25 52 1
47 26 27 Ar
48 26 53 1
49 27 28 Ar
50 27 54 1
51 28 29 Ar
52 28 55 1
53 29 56 1
54 30 31 Ar
55 30 35 Ar
56 31 32 Ar
57 31 51 1
58 32 33 Ar
59 32 50 1
60 33 34 Ar
61 33 47 1
62 34 35 Ar
63 34 48 1
64 35 49 1
65 36 37 Ar
66 36 41 Ar
67 37 38 Ar
68 37 61 1
69 38 39 Ar
70 38 60 1
71 39 40 Ar
72 39 59 1
73 40 41 Ar
74 40 57 1
75 41 58 1
76 44 45 1
77 44 46 1
78 64 65 1
79 64 66 1
80 64 67 1
81 68 70 1
82 68 71 1
83 68 72 1
84 69 73 1
85 69 74 1
86 69 75 1
87 76 77 1
88 76 78 1
89 76 79 1
