# page9_8
# Created by GaussView 6.0.16
#

#
#

@<TRIPOS>MOLECULE
Molecule Name
82 92
SMALL
NO_CHARGES


@<TRIPOS>ATOM
1 C1     3.5040     0.2148     0.0384 C
2 C2    -0.4000     3.1713    -0.0931 C
3 C3    -3.0800    -0.9169     0.2542 C
4 C4     1.2916    -2.5772    -0.2323 C
5 C5     2.4960    -3.3082    -0.1709 C
6 C6     3.5373    -2.3726    -0.1469 C
7 C7     2.9551    -1.0725    -0.0961 C
8 N8     1.5875    -1.2378    -0.1613 N
9 C9     2.6837     1.3285     0.0546 C
10 C10     3.1524     2.6814     0.0759 C
11 C11     2.0777     3.5053    -0.0388 C
12 C12     0.9037     2.6881    -0.0822 C
13 N13     1.2796     1.3550    -0.0291 N
14 C14    -1.4925     2.3195     0.0382 C
15 C15    -2.8883     2.6594     0.1820 C
16 C16    -3.5841     1.4976     0.3321 C
17 C17    -2.6728     0.4084     0.2662 C
18 N18    -1.3796     0.9293     0.1091 N
19 C19    -2.1516    -1.9467     0.0527 C
20 C20    -2.2885    -3.3494    -0.1719 C
21 C21    -1.0163    -3.8649    -0.4399 C
22 C22    -0.1024    -2.8011    -0.2768 C
23 N23    -0.8083    -1.6492    -0.0356 N
24 C24    -4.5402    -1.1696     0.3818 C
25 C25    -5.3414    -1.3455    -0.7456 C
26 C26    -6.7097    -1.5692    -0.6395 C
27 C27    -7.3014    -1.6015     0.6195 C
28 C28    -6.5263    -1.4136     1.7613 C
29 C29    -5.1600    -1.1979     1.6315 C
30 C30     4.9632     0.4384     0.2097 C
31 C31     5.5979     0.1295     1.4126 C
32 C32     6.9628     0.3279     1.5902 C
33 C33     7.7187     0.8588     0.5501 C
34 C34     7.1090     1.1861    -0.6588 C
35 C35     5.7457     0.9727    -0.8159 C
36 C36    -0.5539     4.6461    -0.2236 C
37 C37    -0.3866     5.4933     0.8725 C
38 C38    -0.4807     6.8742     0.7507 C
39 C39    -0.7468     7.4335    -0.4964 C
40 C40    -0.9117     6.6131    -1.6082 C
41 C41    -0.8081     5.2344    -1.4621 C
42 H42     4.1906     2.9646     0.1558 H
43 H43     2.0739     4.5837    -0.0735 H
44 P44     0.1611    -0.0774    -0.0209 P
45 F45     0.0509    -0.0124    -1.6505 F
46 F46     0.2509    -0.1553     1.6085 F
47 F47     9.0278     1.0582     0.7106 F
48 F48     7.8374     1.6966    -1.6574 F
49 F49     5.1808     1.2875    -1.9891 F
50 F50     7.5476     0.0179     2.7511 F
51 F51     4.8912    -0.3845     2.4261 F
52 F52    -4.7911    -1.3105    -1.9647 F
53 F53    -7.4560    -1.7439    -1.7343 F
54 F54    -8.6139    -1.8094     0.7347 F
55 F55    -7.0999    -1.4405     2.9685 F
56 F56    -4.4309    -1.0222     2.7404 F
57 F57    -1.1712     7.1527    -2.8037 F
58 F58    -0.9798     4.4643    -2.5425 F
59 F59    -0.8449     8.7576    -0.6252 F
60 F60    -0.3212     7.6646     1.8179 F
61 F61    -0.1275     4.9744     2.0791 F
62 H62    -4.6501     1.3980     0.4563 H
63 C63     4.9958    -2.7246    -0.2464 C
64 F64     5.1673    -3.9685    -0.7290 F
65 F65     5.6361    -2.6627     0.9421 F
66 F66     5.6459    -1.8987    -1.0981 F
67 C67    -0.7246    -5.1826    -1.1059 C
68 C68     2.6379    -4.7738     0.1377 C
69 F69    -1.6439    -5.4289    -2.0661 F
70 F70    -0.7208    -6.2372    -0.2752 F
71 F71     0.4719    -5.1362    -1.7307 F
72 F72     1.4978    -5.2510     0.6831 F
73 F73     2.9422    -5.5347    -0.9261 F
74 F74     3.6048    -4.9668     1.0622 F
75 C75    -3.5497    -4.1652    -0.1153 C
76 F76    -4.2769    -3.8740     0.9880 F
77 F77    -4.3471    -3.9646    -1.1878 F
78 F78    -3.2848    -5.4814    -0.0540 F
79 C79    -3.5833     3.9860     0.1861 C
80 F80    -4.9030     3.8154     0.4112 F
81 F81    -3.4731     4.6364    -0.9943 F
82 F82    -3.1302     4.8178     1.1500 F
@<TRIPOS>BOND
1 1 7 Ar
2 1 9 2
3 1 30 1
4 2 12 Ar
5 2 14 Ar
6 2 36 1
7 3 17 Ar
8 3 19 Ar
9 3 24 1
10 4 5 Ar
11 4 8 Ar
12 4 22 Ar
13 5 6 Ar
14 5 68 1
15 6 7 Ar
16 6 63 1
17 7 8 Ar
18 8 44 1
19 9 10 Ar
20 9 13 1
21 10 11 2
22 10 42 1
23 11 12 Ar
24 11 43 1
25 12 13 1
26 13 44 1
27 14 15 Ar
28 14 18 1
29 15 16 2
30 15 79 1
31 16 17 Ar
32 16 62 1
33 17 18 1
34 18 44 1
35 19 20 Ar
36 19 23 Ar
37 20 21 Ar
38 20 75 1
39 21 22 Ar
40 21 67 1
41 22 23 Ar
42 23 44 1
43 24 25 Ar
44 24 29 Ar
45 25 26 Ar
46 25 52 1
47 26 27 Ar
48 26 53 1
49 27 28 Ar
50 27 54 1
51 28 29 Ar
52 28 55 1
53 29 56 1
54 30 31 Ar
55 30 35 Ar
56 31 32 Ar
57 31 51 1
58 32 33 Ar
59 32 50 1
60 33 34 Ar
61 33 47 1
62 34 35 Ar
63 34 48 1
64 35 49 1
65 36 37 Ar
66 36 41 Ar
67 37 38 Ar
68 37 61 1
69 38 39 Ar
70 38 60 1
71 39 40 Ar
72 39 59 1
73 40 41 Ar
74 40 57 1
75 41 58 1
76 44 45 1
77 44 46 1
78 63 64 1
79 63 65 1
80 63 66 1
81 67 69 1
82 67 70 1
83 67 71 1
84 68 72 1
85 68 73 1
86 68 74 1
87 75 76 1
88 75 77 1
89 75 78 1
90 79 80 1
91 79 81 1
92 79 82 1
