# Ph2_4MeOPh2_COOH_N5_TD
# Created by GaussView 6.0.16
#

#
#

@<TRIPOS>MOLECULE
Molecule Name
100 109
SMALL
NO_CHARGES


@<TRIPOS>ATOM
1 C1     3.8774    -2.9501     0.1280 C
2 C2     0.1693     0.3098    -0.1588 C
3 C3     3.4926     3.9197     0.0490 C
4 C4     6.0481    -0.0643     0.4822 C
5 C5     7.0200    -0.9707     0.0493 C
6 C6     6.3937    -2.2148    -0.1686 C
7 C7     5.0132    -2.0882     0.1695 C
8 N8     4.8684    -0.7812     0.5784 N
9 C9     2.5737    -2.4253     0.0902 C
10 C10     1.3352    -3.1085     0.3374 C
11 C11     0.3051    -2.2062     0.2533 C
12 C12     0.8487    -0.9108    -0.0437 C
13 N13     2.2194    -1.0924    -0.1188 N
14 C14     0.7837     1.5970    -0.2077 C
15 C15     0.0568     2.8429    -0.3985 C
16 C16     0.9721     3.8515    -0.3330 C
17 C17     2.2673     3.2329    -0.1209 C
18 N18     2.1122     1.8561    -0.0590 N
19 C19     4.6994     3.2340     0.3392 C
20 C20     6.0741     3.6093     0.3493 C
21 C21     6.8367     2.4489     0.4743 C
22 C22     5.9415     1.3521     0.5390 C
23 N23     4.6803     1.8743     0.5071 N
24 C24    -1.3178     0.2382    -0.1841 C
25 C25    -1.9920    -0.5155    -1.1584 C
26 C26    -4.1495     0.0743    -0.2189 C
27 H27     8.0464    -0.7398    -0.1975 H
28 H28     4.0791    -0.4771     1.1334 H
29 H29     1.2626    -4.1533     0.6001 H
30 H30    -0.7420    -2.4005     0.4314 H
31 H31     2.8161    -0.3796    -0.5155 H
32 H32    -1.0072     2.9330    -0.5619 H
33 H33     0.7828     4.9131    -0.4042 H
34 H34     6.4480     4.6173     0.2415 H
35 H35     7.9155     2.3793     0.5037 H
36 H36     3.7803     1.3989     0.3586 H
37 C37    -2.0973     0.9043     0.7761 C
38 H38    -1.4156    -1.0401    -1.9146 H
39 H39    -1.6048     1.4891     1.5468 H
40 C40     7.1230    -3.3334    -0.7851 C
41 O41     6.3546    -4.1057    -1.5845 O
42 H42     6.9289    -4.8302    -1.8985 H
43 O43     8.3173    -3.5270    -0.6453 O
44 C44     3.5603     5.3915    -0.1149 C
45 C45     4.1659     6.1897     0.8707 C
46 C46     3.0527     6.0189    -1.2653 C
47 C47     4.2525     7.5719     0.7149 C
48 H48     4.5524     5.7188     1.7694 H
49 C49     3.1379     7.4014    -1.4186 C
50 H50     2.6088     5.4118    -2.0476 H
51 C51     3.7371     8.1834    -0.4294 C
52 H52     4.7166     8.1727     1.4922 H
53 H53     2.7435     7.8671    -2.3175 H
54 H54     3.8039     9.2609    -0.5507 H
55 C55     4.0678    -4.4149     0.1984 C
56 C56     4.9634    -4.9644     1.1318 C
57 C57     3.3803    -5.2865    -0.6619 C
58 C58     5.1668    -6.3401     1.2008 C
59 H59     5.4962    -4.3031     1.8085 H
60 C60     3.5796    -6.6634    -0.5880 C
61 H61     2.7100    -4.8748    -1.4095 H
62 C62     4.4749    -7.1964     0.3415 C
63 H63     5.8621    -6.7447     1.9311 H
64 H64     3.0451    -7.3209    -1.2685 H
65 H65     4.6336    -8.2699     0.3946 H
66 C66    -3.4847     0.8335     0.7590 C
67 H67    -4.0627     1.3607     1.5099 H
68 C68    -3.3794    -0.6074    -1.1754 C
69 H69    -3.8735    -1.2028    -1.9355 H
70 N70    -5.5584    -0.0083    -0.2246 N
71 C71    -6.2608    -0.0197     1.0150 C
72 C72    -7.3341     0.8573     1.2346 C
73 C73    -5.8830    -0.8931     2.0371 C
74 C74    -8.0122     0.8508     2.4443 C
75 H75    -7.6347     1.5404     0.4469 H
76 C76    -6.5444    -0.8894     3.2664 C
77 H77    -5.0559    -1.5766     1.8740 H
78 C78    -7.6188    -0.0170     3.4742 C
79 H79    -8.8441     1.5251     2.6208 H
80 H80    -6.2233    -1.5749     4.0416 H
81 C81    -6.2864    -0.0564    -1.4370 C
82 C82    -7.4497    -0.8260    -1.5200 C
83 C83    -5.8678     0.6876    -2.5560 C
84 C84    -8.2010    -0.8504    -2.7006 C
85 H85    -7.7916    -1.4086    -0.6726 H
86 C86    -6.6134     0.6376    -3.7266 C
87 H87    -4.9743     1.2980    -2.4962 H
88 C88    -7.7851    -0.1199    -3.8199 C
89 H89    -6.2895     1.2162    -4.5875 H
90 H90    -8.3515    -0.1303    -4.7428 H
91 O91    -9.3195    -1.6295    -2.6617 O
92 O92    -8.3392     0.0656     4.6284 O
93 C93    -7.9632    -0.7782     5.7075 C
94 H94    -6.9321    -0.5853     6.0309 H
95 H95    -8.6455    -0.5410     6.5262 H
96 H96    -8.0698    -1.8394     5.4473 H
97 C97   -10.1309    -1.6841    -3.8263 C
98 H98    -9.5820    -2.0970    -4.6826 H
99 H99   -10.9633    -2.3471    -3.5817 H
100 H100   -10.5248    -0.6946    -4.0920 H
@<TRIPOS>BOND
1 1 7 Ar
2 1 9 Ar
3 1 55 1
4 2 12 Ar
5 2 14 Ar
6 2 24 1
7 3 17 Ar
8 3 19 Ar
9 3 44 1
10 4 5 Ar
11 4 8 1
12 4 22 Ar
13 5 6 Ar
14 5 27 1
15 6 7 Ar
16 6 40 1
17 7 8 Ar
18 8 28 1
19 9 10 Ar
20 9 13 1
21 10 11 2
22 10 29 1
23 11 12 Ar
24 11 30 1
25 12 13 1
26 13 31 1
27 14 15 1
28 14 18 Ar
29 15 16 2
30 15 32 1
31 16 17 1
32 16 33 1
33 17 18 1
34 19 20 Ar
35 19 23 Ar
36 20 21 Ar
37 20 34 1
38 21 22 Ar
39 21 35 1
40 22 23 Ar
41 23 36 1
42 24 25 Ar
43 24 37 Ar
44 25 38 1
45 25 68 Ar
46 26 66 Ar
47 26 68 Ar
48 26 70 1
49 37 39 1
50 37 66 Ar
51 40 41 1
52 40 43 2
53 41 42 1
54 44 45 Ar
55 44 46 Ar
56 45 47 Ar
57 45 48 1
58 46 49 Ar
59 46 50 1
60 47 51 Ar
61 47 52 1
62 49 51 Ar
63 49 53 1
64 51 54 1
65 55 56 Ar
66 55 57 Ar
67 56 58 Ar
68 56 59 1
69 57 60 Ar
70 57 61 1
71 58 62 Ar
72 58 63 1
73 60 62 Ar
74 60 64 1
75 62 65 1
76 66 67 1
77 68 69 1
78 70 71 1
79 70 81 1
80 71 72 Ar
81 71 73 Ar
82 72 74 Ar
83 72 75 1
84 73 76 Ar
85 73 77 1
86 74 78 Ar
87 74 79 1
88 76 78 Ar
89 76 80 1
90 78 92 1
91 81 82 Ar
92 81 83 Ar
93 82 84 Ar
94 82 85 1
95 83 86 Ar
96 83 87 1
97 84 88 Ar
98 84 91 1
99 86 88 Ar
100 86 89 1
101 88 90 1
102 91 97 1
103 92 93 1
104 93 94 1
105 93 95 1
106 93 96 1
107 97 98 1
108 97 99 1
109 97 100 1
