# Ph3_4N_3H_TD
# Created by GaussView 6.0.16
#

#
#

@<TRIPOS>MOLECULE
Molecule Name
67 74
SMALL
NO_CHARGES


@<TRIPOS>ATOM
1 C1    -3.4195    -1.0323    -0.0730 C
2 C2    -0.0005     2.5078    -0.0371 C
3 C3     3.4409    -1.0254    -0.0604 C
4 C4    -0.7121    -3.3782    -0.2402 C
5 C5    -1.7654    -4.3235    -0.1317 C
6 C6    -2.9677    -3.6190    -0.0988 C
7 C7    -2.6661    -2.2273    -0.1892 C
8 N8    -1.3063    -2.1483    -0.3077 N
9 C9    -2.7974     0.2400    -0.0286 C
10 C10    -3.4933     1.5127    -0.0750 C
11 C11    -2.5416     2.4881    -0.0709 C
12 C12    -1.2491     1.8211    -0.0189 C
13 N13    -1.4295     0.4680     0.0011 N
14 C14     1.2638     1.9057    -0.0876 C
15 C15     2.5616     2.5174    -0.1191 C
16 C16     3.5143     1.5274    -0.1304 C
17 C17     2.8603     0.2512    -0.1037 C
18 N18     1.4915     0.5391    -0.1052 N
19 C19     2.6640    -2.2118    -0.0828 C
20 C20     2.9215    -3.5584     0.2764 C
21 C21     1.7190    -4.2736     0.2113 C
22 C22     0.7056    -3.3897    -0.2064 C
23 N23     1.3171    -2.1618    -0.3932 N
24 C24     4.9209    -1.1429     0.0653 C
25 C25     5.4978    -1.6930     1.2200 C
26 C26     6.8824    -1.8169     1.3331 C
27 C27     7.7126    -1.3862     0.2970 C
28 C28     7.1497    -0.8324    -0.8539 C
29 C29     5.7647    -0.7153    -0.9705 C
30 C30    -0.0285     4.0012    -0.0092 C
31 C31     0.4634     4.7517    -1.0878 C
32 C32     0.4375     6.1461    -1.0579 C
33 C33    -0.0860     6.8145     0.0499 C
34 C34    -0.5807     6.0790     1.1285 C
35 C35    -0.5499     4.6854     1.0996 C
36 C36    -4.8943    -1.1476     0.0234 C
37 C37    -5.6041    -0.5178     1.0601 C
38 C38    -6.9889    -0.6427     1.1547 C
39 C39    -7.6920    -1.4043     0.2195 C
40 C40    -6.9988    -2.0406    -0.8119 C
41 C41    -5.6143    -1.9142    -0.9091 C
42 H42     3.8750    -3.9398     0.6121 H
43 H43     1.5683    -5.3039     0.5043 H
44 H44    -1.6412    -5.3969    -0.0852 H
45 H45    -3.9582    -4.0390     0.0016 H
46 H46     4.5860     1.6601    -0.1611 H
47 H47     2.7368     3.5830    -0.1316 H
48 H48    -2.6974     3.5560    -0.1222 H
49 H49    -4.5640     1.6425    -0.1441 H
50 H50    -0.8851    -1.2172    -0.2075 H
51 H51     0.9577    -1.4808    -1.0501 H
52 H52     0.7738    -0.0776     0.2515 H
53 H53    -0.9280     4.1151     1.9427 H
54 H54    -0.9870     6.5901     1.9971 H
55 H55    -0.1091     7.9006     0.0724 H
56 H56     0.8185     6.7099    -1.9051 H
57 H57     0.8564     4.2332    -1.9573 H
58 H58    -5.0572     0.0555     1.8017 H
59 H59    -7.5181    -0.1516     1.9667 H
60 H60    -8.7714    -1.5023     0.2943 H
61 H61    -7.5378    -2.6301    -1.5486 H
62 H62    -5.0818    -2.3940    -1.7243 H
63 H63     5.3271    -0.2981    -1.8726 H
64 H64     7.7885    -0.4971    -1.6664 H
65 H65     8.7913    -1.4801     0.3863 H
66 H66     7.3127    -2.2422     2.2357 H
67 H67     4.8542    -2.0099     2.0352 H
@<TRIPOS>BOND
1 1 7 Ar
2 1 9 Ar
3 1 36 1
4 2 12 Ar
5 2 14 Ar
6 2 30 1
7 3 17 Ar
8 3 19 Ar
9 3 24 1
10 4 5 Ar
11 4 8 Ar
12 4 22 Ar
13 5 6 Ar
14 5 44 1
15 6 7 Ar
16 6 45 1
17 7 8 Ar
18 8 50 1
19 9 10 1
20 9 13 1
21 10 11 2
22 10 49 1
23 11 12 1
24 11 48 1
25 12 13 Ar
26 14 15 Ar
27 14 18 1
28 15 16 2
29 15 47 1
30 16 17 Ar
31 16 46 1
32 17 18 1
33 18 52 1
34 19 20 Ar
35 19 23 1
36 20 21 Ar
37 20 42 1
38 21 22 Ar
39 21 43 1
40 22 23 1
41 23 51 1
42 24 25 Ar
43 24 29 Ar
44 25 26 Ar
45 25 67 1
46 26 27 Ar
47 26 66 1
48 27 28 Ar
49 27 65 1
50 28 29 Ar
51 28 64 1
52 29 63 1
53 30 31 Ar
54 30 35 Ar
55 31 32 Ar
56 31 57 1
57 32 33 Ar
58 32 56 1
59 33 34 Ar
60 33 55 1
61 34 35 Ar
62 34 54 1
63 35 53 1
64 36 37 Ar
65 36 41 Ar
66 37 38 Ar
67 37 58 1
68 38 39 Ar
69 38 59 1
70 39 40 Ar
71 39 60 1
72 40 41 Ar
73 40 61 1
74 41 62 1
