# Ph3_COOH_TD
# Created by GaussView 6.0.16
#

#
#

@<TRIPOS>MOLECULE
Molecule Name
70 77
SMALL
NO_CHARGES


@<TRIPOS>ATOM
1 C1     3.2004    -0.1250    -0.1494 C
2 C2    -0.8455     2.7120     0.0434 C
3 C3    -3.5724    -1.3665    -0.0806 C
4 C4     0.9101    -2.9280    -0.3897 C
5 C5     2.0183    -3.6403     0.0758 C
6 C6     3.0803    -2.7300     0.2577 C
7 C7     2.6329    -1.4342    -0.1367 C
8 N8     1.3289    -1.6173    -0.5388 N
9 C9     2.3809     1.0165    -0.1522 C
10 C10     2.7538     2.3772    -0.4218 C
11 C11     1.6340     3.1665    -0.3588 C
12 C12     0.5006     2.3371    -0.0568 C
13 N13     0.9990     1.0493     0.0414 N
14 C14    -1.9554     1.8183     0.1072 C
15 C15    -3.3422     2.2393     0.2420 C
16 C16    -4.1060     1.1106     0.1991 C
17 C17    -3.1957    -0.0102     0.0574 C
18 N18    -1.8921     0.4614     0.0159 N
19 C19    -2.6152    -2.3873    -0.3110 C
20 C20    -2.6597    -3.8112    -0.2940 C
21 C21    -1.3504    -4.2837    -0.3810 C
22 C22    -0.4920    -3.1584    -0.4487 C
23 N23    -1.2942    -2.0535    -0.4510 N
24 C24    -4.9936    -1.7698     0.0433 C
25 C25    -5.5933    -2.5684    -0.9455 C
26 C26    -6.9236    -2.9673    -0.8298 C
27 C27    -7.0941    -1.7903     1.2698 C
28 C28    -5.7636    -1.3914     1.1561 C
29 C29     4.6685     0.0341    -0.2339 C
30 C30     5.3606     0.9351     0.5910 C
31 C31     6.7446     1.0664     0.4985 C
32 C32     6.7895    -0.6084    -1.2378 C
33 C33     5.4057    -0.7355    -1.1503 C
34 C34    -1.1211     4.1784     0.0360 C
35 C35    -0.5793     5.0107     1.0281 C
36 C36    -0.8248     6.3835     1.0220 C
37 C37    -1.6185     6.9493     0.0232 C
38 H38     2.0348    -4.6808     0.3666 H
39 H39     0.8570    -0.9509    -1.1358 H
40 H40     3.7540     2.6907    -0.6811 H
41 H41     1.5784     4.2274    -0.5523 H
42 H42     0.4443     0.3085     0.4475 H
43 H43    -3.6848     3.2577     0.3533 H
44 H44    -5.1840     1.0474     0.2390 H
45 H45    -3.5558    -4.4070    -0.1972 H
46 H46    -1.0304    -5.3167    -0.3875 H
47 H47    -1.0473    -1.0633    -0.3182 H
48 C48    -2.1611     6.1330    -0.9714 C
49 C49    -1.9131     4.7612    -0.9663 C
50 H50    -2.7733     6.5657    -1.7579 H
51 H51    -0.4013     7.0094     1.8028 H
52 H52     0.0285     4.5705     1.8129 H
53 H53    -2.3256     4.1312    -1.7483 H
54 H54    -1.8126     8.0182     0.0190 H
55 H55     7.3400    -1.2107    -1.9553 H
56 H56     4.8841    -1.4314    -1.8003 H
57 H57     4.8099     1.5109     1.3279 H
58 H58     7.2625     1.7631     1.1520 H
59 H59    -5.0133    -2.8569    -1.8166 H
60 H60    -7.3719    -3.5763    -1.6100 H
61 H61    -7.6714    -1.4925     2.1408 H
62 H62    -5.3045    -0.7987     1.9408 H
63 C63    -7.6796    -2.5790     0.2777 C
64 H64    -8.7167    -2.8898     0.3676 H
65 C65     7.4658     0.2943    -0.4144 C
66 H66     8.5455     0.3939    -0.4824 H
67 C67     4.3365    -3.1504     0.8963 C
68 O68     4.9206    -2.1816     1.6353 O
69 H69     5.7561    -2.5600     1.9699 H
70 O70     4.7933    -4.2769     0.8223 O
@<TRIPOS>BOND
1 1 7 Ar
2 1 9 Ar
3 1 29 1
4 2 12 Ar
5 2 14 Ar
6 2 34 1
7 3 17 Ar
8 3 19 Ar
9 3 24 1
10 4 5 Ar
11 4 8 1
12 4 22 Ar
13 5 6 Ar
14 5 38 1
15 6 7 Ar
16 6 67 1
17 7 8 Ar
18 8 39 1
19 9 10 Ar
20 9 13 1
21 10 11 2
22 10 40 1
23 11 12 Ar
24 11 41 1
25 12 13 1
26 13 42 1
27 14 15 1
28 14 18 Ar
29 15 16 2
30 15 43 1
31 16 17 1
32 16 44 1
33 17 18 1
34 19 20 Ar
35 19 23 Ar
36 20 21 Ar
37 20 45 1
38 21 22 Ar
39 21 46 1
40 22 23 Ar
41 23 47 1
42 24 25 Ar
43 24 28 Ar
44 25 26 Ar
45 25 59 1
46 26 60 1
47 26 63 Ar
48 27 28 Ar
49 27 61 1
50 27 63 Ar
51 28 62 1
52 29 30 Ar
53 29 33 Ar
54 30 31 Ar
55 30 57 1
56 31 58 1
57 31 65 Ar
58 32 33 Ar
59 32 55 1
60 32 65 Ar
61 33 56 1
62 34 35 Ar
63 34 49 Ar
64 35 36 Ar
65 35 52 1
66 36 37 Ar
67 36 51 1
68 37 48 Ar
69 37 54 1
70 48 49 Ar
71 48 50 1
72 49 53 1
73 63 64 1
74 65 66 1
75 67 68 1
76 67 70 2
77 68 69 1
