# Ph4_COOH_N5_TD
# Created by GaussView 6.0.16
#

#
#

@<TRIPOS>MOLECULE
Molecule Name
92 101
SMALL
NO_CHARGES


@<TRIPOS>ATOM
1 C1     3.2841    -2.8428     0.0712 C
2 C2    -0.5910     0.2248    -0.0834 C
3 C3     2.5384     4.0009     0.1395 C
4 C4     5.2987     0.1461     0.4817 C
5 C5     6.3171    -0.6997     0.0310 C
6 C6     5.7566    -1.9696    -0.2119 C
7 C7     4.3717    -1.9220     0.1288 C
8 N8     4.1599    -0.6341     0.5651 N
9 C9     1.9547    -2.3877     0.0564 C
10 C10     0.7572    -3.1392     0.3062 C
11 C11    -0.3186    -2.2890     0.2617 C
12 C12     0.1527    -0.9609    -0.0128 C
13 N13     1.5297    -1.0694    -0.1157 N
14 C14    -0.0481     1.5436    -0.1181 C
15 C15    -0.8451     2.7526    -0.2592 C
16 C16     0.0175     3.8069    -0.1952 C
17 C17     1.3485     3.2540    -0.0291 C
18 N18     1.2682     1.8700     0.0025 N
19 C19     3.7814     3.3729     0.4070 C
20 C20     5.1352     3.8179     0.4183 C
21 C21     5.9565     2.6959     0.5194 C
22 C22     5.1185     1.5537     0.5663 C
23 N23     3.8324     2.0112     0.5485 N
24 C24    -2.0727     0.0738    -0.0697 C
25 C25    -2.7340    -0.6727    -1.0575 C
26 C26    -4.8846    -0.2639    -0.0158 C
27 H27     7.3296    -0.4097    -0.2104 H
28 H28     3.3467    -0.3771     1.1092 H
29 H29     0.7426    -4.1919     0.5468 H
30 H30    -1.3512    -2.5406     0.4532 H
31 H31     2.0780    -0.3206    -0.5165 H
32 H32    -1.9167     2.7888    -0.3922 H
33 H33    -0.2286     4.8584    -0.2356 H
34 H34     5.4566     4.8455     0.3277 H
35 H35     7.0376     2.6810     0.5434 H
36 H36     2.9541     1.4949     0.4021 H
37 C37    -2.8545     0.6522     0.9439 C
38 H38    -2.1539    -1.1271    -1.8551 H
39 H39    -2.3687     1.2328     1.7220 H
40 C40     6.5401    -3.0387    -0.8502 C
41 O41     5.8117    -3.8210    -1.6772 O
42 H42     6.4178    -4.5134    -2.0037 H
43 O43     7.7403    -3.1842    -0.7044 O
44 C44     2.5264     5.4770     0.0036 C
45 C45     3.1048     6.2882     0.9950 C
46 C46     1.9682     6.0976    -1.1270 C
47 C47     3.1164     7.6756     0.8639 C
48 H48     3.5288     5.8228     1.8794 H
49 C49     1.9791     7.4851    -1.2558 C
50 H50     1.5443     5.4820    -1.9138 H
51 C51     2.5526     8.2796    -0.2614 C
52 H52     3.5606     8.2858     1.6455 H
53 H53     1.5474     7.9456    -2.1402 H
54 H54     2.5618     9.3611    -0.3635 H
55 C55     3.5532    -4.2966     0.1072 C
56 C56     4.4817    -4.8178     1.0245 C
57 C57     2.9088    -5.1844    -0.7696 C
58 C58     4.7590    -6.1818     1.0616 C
59 H59     4.9814    -4.1446     1.7144 H
60 C60     3.1821    -6.5499    -0.7278 C
61 H61     2.2129    -4.7928    -1.5047 H
62 C62     4.1098    -7.0546     0.1858 C
63 H63     5.4785    -6.5647     1.7801 H
64 H64     2.6798    -7.2199    -1.4203 H
65 H65     4.3262    -8.1189     0.2141 H
66 C66    -4.2355     0.4977     0.9694 C
67 H67    -4.8179     0.9579     1.7603 H
68 C68    -4.1134    -0.8479    -1.0324 C
69 H69    -4.5996    -1.4357    -1.8036 H
70 N70    -6.2871    -0.4410     0.0173 N
71 C71    -6.9578    -0.6301     1.2525 C
72 C72    -8.2012    -0.0215     1.4811 C
73 C73    -6.3938    -1.4320     2.2563 C
74 C74    -8.8670    -0.2204     2.6882 C
75 H75    -8.6390     0.6031     0.7097 H
76 C76    -7.0590    -1.6096     3.4673 C
77 H77    -5.4366    -1.9119     2.0818 H
78 C78    -8.3004    -1.0102     3.6907 C
79 H79    -9.8289     0.2588     2.8497 H
80 H80    -6.6085    -2.2334     4.2346 H
81 H81    -8.8193    -1.1567     4.6333 H
82 C82    -7.0276    -0.4604    -1.1939 C
83 C83    -8.0213    -1.4277    -1.4015 C
84 C84    -6.7744     0.4900    -2.1935 C
85 C85    -8.7531    -1.4349    -2.5870 C
86 H86    -8.2136    -2.1673    -0.6314 H
87 C87    -7.4988     0.4638    -3.3832 C
88 H88    -6.0096     1.2425    -2.0311 H
89 C89    -8.4952    -0.4937    -3.5858 C
90 H90    -9.5203    -2.1901    -2.7340 H
91 H91    -7.2922     1.2061    -4.1494 H
92 H92    -9.0629    -0.5068    -4.5114 H
@<TRIPOS>BOND
1 1 7 Ar
2 1 9 Ar
3 1 55 1
4 2 12 Ar
5 2 14 Ar
6 2 24 1
7 3 17 Ar
8 3 19 Ar
9 3 44 1
10 4 5 Ar
11 4 8 1
12 4 22 Ar
13 5 6 Ar
14 5 27 1
15 6 7 Ar
16 6 40 1
17 7 8 Ar
18 8 28 1
19 9 10 Ar
20 9 13 1
21 10 11 2
22 10 29 1
23 11 12 Ar
24 11 30 1
25 12 13 1
26 13 31 1
27 14 15 1
28 14 18 Ar
29 15 16 2
30 15 32 1
31 16 17 1
32 16 33 1
33 17 18 1
34 19 20 Ar
35 19 23 Ar
36 20 21 Ar
37 20 34 1
38 21 22 Ar
39 21 35 1
40 22 23 Ar
41 23 36 1
42 24 25 Ar
43 24 37 Ar
44 25 38 1
45 25 68 Ar
46 26 66 Ar
47 26 68 Ar
48 26 70 1
49 37 39 1
50 37 66 Ar
51 40 41 1
52 40 43 2
53 41 42 1
54 44 45 Ar
55 44 46 Ar
56 45 47 Ar
57 45 48 1
58 46 49 Ar
59 46 50 1
60 47 51 Ar
61 47 52 1
62 49 51 Ar
63 49 53 1
64 51 54 1
65 55 56 Ar
66 55 57 Ar
67 56 58 Ar
68 56 59 1
69 57 60 Ar
70 57 61 1
71 58 62 Ar
72 58 63 1
73 60 62 Ar
74 60 64 1
75 62 65 1
76 66 67 1
77 68 69 1
78 70 71 1
79 70 82 1
80 71 72 Ar
81 71 73 Ar
82 72 74 Ar
83 72 75 1
84 73 76 Ar
85 73 77 1
86 74 78 Ar
87 74 79 1
88 76 78 Ar
89 76 80 1
90 78 81 1
91 82 83 Ar
92 82 84 Ar
93 83 85 Ar
94 83 86 1
95 84 87 Ar
96 84 88 1
97 85 89 Ar
98 85 90 1
99 87 89 Ar
100 87 91 1
101 89 92 1
