# POH_COOCH3_CF3_TD
# Created by GaussView 6.0.16
#

#
#

@<TRIPOS>MOLECULE
Molecule Name
87 97
SMALL
NO_CHARGES


@<TRIPOS>ATOM
1 C1    -3.3667    -1.9084    -0.1113 C
2 C2     0.0001     1.6666     0.0004 C
3 C3     3.3667    -1.9086     0.1118 C
4 C4    -0.7004    -4.2820    -0.0453 C
5 C5    -1.7745    -5.1991    -0.0266 C
6 C6    -2.9424    -4.4511    -0.0574 C
7 C7    -2.5843    -3.0709    -0.1042 C
8 N8    -1.2094    -3.0039    -0.1147 N
9 C9    -2.7620    -0.6484    -0.0868 C
10 C10    -3.4466     0.6053    -0.1670 C
11 C11    -2.5168     1.6055    -0.1369 C
12 C12    -1.2253     0.9978    -0.0418 C
13 N13    -1.3860    -0.3782    -0.0269 N
14 C14     1.2254     0.9978     0.0425 C
15 C15     2.5170     1.6054     0.1370 C
16 C16     3.4467     0.6052     0.1666 C
17 C17     2.7620    -0.6485     0.0869 C
18 N18     1.3860    -0.3783     0.0276 N
19 C19     2.5842    -3.0710     0.1058 C
20 C20     2.9421    -4.4513     0.0596 C
21 C21     1.7742    -5.1992     0.0298 C
22 C22     0.7002    -4.2820     0.0485 C
23 N23     1.2093    -3.0039     0.1170 N
24 C24     4.8445    -2.0323     0.1469 C
25 C25     5.4711    -2.7759     1.1615 C
26 C26     6.8536    -2.9157     1.1900 C
27 C27     7.6495    -2.2881     0.2233 C
28 C28     7.0324    -1.5522    -0.7964 C
29 C29     5.6466    -1.4363    -0.8392 C
30 C30     0.0001     3.1550     0.0003 C
31 C31     0.5854     3.8693    -1.0526 C
32 C32     0.5867     5.2642    -1.0470 C
33 C33     0.0000     5.9728     0.0002 C
34 C34    -0.5867     5.2643     1.0474 C
35 C35    -0.5852     3.8693     1.0532 C
36 C36    -4.8445    -2.0321    -0.1473 C
37 C37    -5.6472    -1.4357     0.8381 C
38 C38    -7.0329    -1.5516     0.7947 C
39 C39    -7.6495    -2.2880    -0.2251 C
40 C40    -6.8530    -2.9159    -1.1911 C
41 C41    -5.4706    -2.7761    -1.1620 C
42 H42    -1.6845    -6.2755     0.0231 H
43 H43    -3.9557    -4.8256    -0.0370 H
44 H44    -4.5174     0.7086    -0.2572 H
45 H45    -2.6933     2.6691    -0.1944 H
46 H46     2.6936     2.6690     0.1943 H
47 H47     4.5176     0.7083     0.2563 H
48 H48     3.9554    -4.8258     0.0389 H
49 H49     1.6841    -6.2756    -0.0192 H
50 H50     7.3307    -3.5039     1.9668 H
51 H51     7.6286    -1.0997    -1.5817 H
52 H52     5.1751    -0.8952    -1.6529 H
53 H53     4.8654    -3.2383     1.9341 H
54 H54    -5.1762    -0.8943     1.6519 H
55 H55    -7.6296    -1.0989     1.5795 H
56 H56    -7.3297    -3.5044    -1.9681 H
57 H57    -4.8644    -3.2387    -1.9341 H
58 C58     9.1261    -2.5242     0.2636 C
59 C59    -9.1261    -2.5243    -0.2661 C
60 O60     9.9692    -1.5033    -0.0226 O
61 O61     9.5947    -3.6135     0.5164 O
62 C62     1.2764     6.0065    -2.1583 C
63 C63    -1.2763     6.0067     2.1586 C
64 F64    -2.5980     6.1654     1.9058 F
65 F65    -1.1816     5.3511     3.3361 F
66 F66    -0.7609     7.2418     2.3391 F
67 F67     2.5981     6.1651    -1.9055 F
68 F68     1.1816     5.3508    -3.3357 F
69 F69     0.7609     7.2416    -2.3389 F
70 H70     0.0000     7.0560     0.0001 H
71 H71    -1.0295     3.3300     1.8823 H
72 H72     1.0296     3.3298    -1.8817 H
73 O73    -9.9695    -1.5034     0.0189 O
74 O74    -9.5943    -3.6138    -0.5186 O
75 C75    -9.5786    -0.1280    -0.1226 C
76 H76    -9.2963     0.2958     0.8456 H
77 H77    -8.7556    -0.0080    -0.8311 H
78 H78   -10.4604     0.3964    -0.4981 H
79 C79     9.5783    -0.1279     0.1190 C
80 H80     9.2956     0.2958    -0.8491 H
81 H81     8.7556    -0.0079     0.8277 H
82 H82    10.4602     0.3966     0.4940 H
83 O83     0.1458    -1.5446    -1.6830 O
84 H84    -0.5607    -2.0761    -2.0861 H
85 O85    -0.1457    -1.5435     1.6844 O
86 H86     0.5606    -2.0750     2.0878 H
87 P87    -0.0000    -1.6086     0.0007 P
@<TRIPOS>BOND
1 1 7 Ar
2 1 9 Ar
3 1 36 1
4 2 12 Ar
5 2 14 Ar
6 2 30 1
7 3 17 Ar
8 3 19 Ar
9 3 24 1
10 4 5 Ar
11 4 8 Ar
12 4 22 Ar
13 5 6 Ar
14 5 42 1
15 6 7 Ar
16 6 43 1
17 7 8 Ar
18 8 87 1
19 9 10 Ar
20 9 13 1
21 10 11 2
22 10 44 1
23 11 12 Ar
24 11 45 1
25 12 13 1
26 13 87 1
27 14 15 Ar
28 14 18 1
29 15 16 2
30 15 46 1
31 16 17 Ar
32 16 47 1
33 17 18 1
34 18 87 1
35 19 20 Ar
36 19 23 Ar
37 20 21 Ar
38 20 48 1
39 21 22 Ar
40 21 49 1
41 22 23 Ar
42 23 87 1
43 24 25 Ar
44 24 29 Ar
45 25 26 Ar
46 25 53 1
47 26 27 Ar
48 26 50 1
49 27 28 Ar
50 27 58 1
51 28 29 Ar
52 28 51 1
53 29 52 1
54 30 31 Ar
55 30 35 Ar
56 31 32 Ar
57 31 72 1
58 32 33 Ar
59 32 62 1
60 33 34 Ar
61 33 70 1
62 34 35 Ar
63 34 63 1
64 35 71 1
65 36 37 Ar
66 36 41 Ar
67 37 38 Ar
68 37 54 1
69 38 39 Ar
70 38 55 1
71 39 40 Ar
72 39 59 1
73 40 41 Ar
74 40 56 1
75 41 57 1
76 58 60 1
77 58 61 2
78 59 73 1
79 59 74 2
80 60 79 1
81 62 67 1
82 62 68 1
83 62 69 1
84 63 64 1
85 63 65 1
86 63 66 1
87 73 75 1
88 75 76 1
89 75 77 1
90 75 78 1
91 79 80 1
92 79 81 1
93 79 82 1
94 83 84 1
95 83 87 1
96 85 86 1
97 85 87 1
