# 143_Ga_py_Me
# Created by GaussView 6.0.16
#

#
#

@<TRIPOS>MOLECULE
Molecule Name
87 97
SMALL
NO_CHARGES


@<TRIPOS>ATOM
1 C1     3.5390    -1.4196    -0.2851 C
2 C2     0.6381     2.5537    -0.3292 C
3 C3    -3.1331    -0.6121    -0.1582 C
4 C4     0.6196    -3.4955    -0.1912 C
5 C5     1.5806    -4.5329    -0.3669 C
6 C6     2.8356    -3.9312    -0.3871 C
7 C7     2.6435    -2.5172    -0.2311 C
8 N8     1.3038    -2.3114    -0.0870 N
9 C9     3.1325    -0.0683    -0.3054 C
10 C10     3.9791     1.0951    -0.3644 C
11 C11     3.1776     2.2082    -0.3799 C
12 C12     1.8093     1.7634    -0.3333 C
13 N13     1.8163     0.3853    -0.2783 N
14 C14    -0.6891     2.0653    -0.3047 C
15 C15    -1.9129     2.8174    -0.3655 C
16 C16    -2.9553     1.9251    -0.3019 C
17 C17    -2.4065     0.5984    -0.2057 C
18 N18    -1.0212     0.7307    -0.2011 N
19 C19    -2.5451    -1.8994    -0.1450 C
20 C20    -3.0730    -3.2431    -0.2878 C
21 C21    -1.9794    -4.1057    -0.3088 C
22 C22    -0.8003    -3.3220    -0.1731 C
23 N23    -1.1857    -2.0140    -0.0606 N
24 C24    -4.6161    -0.4836    -0.1202 C
25 C25    -5.3705    -0.3107    -1.2803 C
26 C26    -6.7533    -0.1784    -1.2408 C
27 C27    -7.4154    -0.2253    -0.0177 C
28 C28    -6.6906    -0.4016     1.1564 C
29 C29    -5.3059    -0.5285     1.0903 C
30 F30    -4.7675    -0.2660    -2.4733 F
31 F31    -7.4569    -0.0476    -2.3757 F
32 F32    -8.7475    -0.1069     0.0288 F
33 F33    -7.3256    -0.4416     2.3372 F
34 F34    -4.6311    -0.6966     2.2398 F
35 C35     0.8079     4.0306    -0.3167 C
36 C36     0.4175     4.7876     0.7925 C
37 C37     0.5557     6.1704     0.8343 C
38 C38     1.1146     6.8356    -0.2531 C
39 C39     1.5229     6.1129    -1.3697 C
40 C40     1.3619     4.7307    -1.3923 C
41 F41    -0.1052     4.1780     1.8725 F
42 F42     0.1703     6.8622     1.9147 F
43 F43     1.2600     8.1642    -0.2232 F
44 F44     2.0554     6.7522    -2.4187 F
45 F45     1.7589     4.0722    -2.4899 F
46 C46     4.9888    -1.7294    -0.3599 C
47 C47     5.7740    -1.3763    -1.4629 C
48 C48     7.1284    -1.6863    -1.5352 C
49 C49     7.7333    -2.3822    -0.4932 C
50 C50     6.9796    -2.7570     0.6145 C
51 C51     5.6299    -2.4268     0.6701 C
52 F52     5.2273    -0.7258    -2.4997 F
53 F53     7.8498    -1.3328    -2.6068 F
54 F54     9.0328    -2.6893    -0.5561 F
55 F55     7.5592    -3.4211     1.6235 F
56 F56     4.9430    -2.7911     1.7642 F
57 Ga57     0.2479    -0.6883     0.1662 Ga
58 H58     1.3669    -5.5874    -0.4832 H
59 H59     5.0596     1.0790    -0.3913 H
60 H60     3.5019     3.2380    -0.4276 H
61 H61    -1.9824     3.8911    -0.4706 H
62 H62    -4.0106     2.1575    -0.3380 H
63 H63     3.7854    -4.4282    -0.5335 H
64 H64    -2.0252    -5.1803    -0.4318 H
65 C65    -4.5010    -3.6772    -0.4554 C
66 H66    -5.1043    -3.3292     0.3924 H
67 H67    -4.5293    -4.7842    -0.4279 H
68 N68    -5.1283    -3.1538    -1.6700 N
69 C69    -4.4332    -3.5348    -2.8885 C
70 C70    -6.5375    -3.5030    -1.7279 C
71 H71    -7.0337    -3.1951    -0.8014 H
72 H72    -7.0137    -2.9730    -2.5602 H
73 H73    -4.9250    -3.0625    -3.7450 H
74 H74    -3.3979    -3.1866    -2.8556 H
75 H75    -4.4237    -4.6299    -3.0579 H
76 H76    -6.7143    -4.5882    -1.8633 H
77 N77     0.3218    -0.5190     2.2927 N
78 C78     0.1381     0.6730     2.8903 C
79 C79     0.5807    -1.6040     3.0439 C
80 C80     0.2076     0.8194     4.2700 C
81 H81    -0.0638     1.5168     2.2407 H
82 C82     0.6629    -1.5361     4.4291 C
83 H83     0.7240    -2.5340     2.5057 H
84 C84     0.4734    -0.3034     5.0534 C
85 H85     0.0558     1.7970     4.7139 H
86 H86     0.8722    -2.4337     5.0003 H
87 H87     0.5329    -0.2189     6.1342 H
@<TRIPOS>BOND
1 1 7 Ar
2 1 9 Ar
3 1 46 1
4 2 12 Ar
5 2 14 Ar
6 2 35 1
7 3 17 Ar
8 3 19 Ar
9 3 24 1
10 4 5 Ar
11 4 8 Ar
12 4 22 Ar
13 5 6 Ar
14 5 58 1
15 6 7 Ar
16 6 63 1
17 7 8 Ar
18 8 57 1
19 9 10 Ar
20 9 13 1
21 10 11 2
22 10 59 1
23 11 12 Ar
24 11 60 1
25 12 13 Ar
26 13 57 1
27 14 15 Ar
28 14 18 Ar
29 15 16 2
30 15 61 1
31 16 17 Ar
32 16 62 1
33 17 18 1
34 18 57 1
35 19 20 1
36 19 23 Ar
37 20 21 Ar
38 20 65 1
39 21 22 Ar
40 21 64 1
41 22 23 Ar
42 23 57 1
43 24 25 Ar
44 24 29 Ar
45 25 26 Ar
46 25 30 1
47 26 27 Ar
48 26 31 1
49 27 28 Ar
50 27 32 1
51 28 29 Ar
52 28 33 1
53 29 34 1
54 35 36 Ar
55 35 40 Ar
56 36 37 Ar
57 36 41 1
58 37 38 Ar
59 37 42 1
60 38 39 Ar
61 38 43 1
62 39 40 Ar
63 39 44 1
64 40 45 1
65 46 47 Ar
66 46 51 Ar
67 47 48 Ar
68 47 52 1
69 48 49 Ar
70 48 53 1
71 49 50 Ar
72 49 54 1
73 50 51 Ar
74 50 55 1
75 51 56 1
76 65 66 1
77 65 67 1
78 65 68 1
79 68 69 1
80 68 70 1
81 69 73 1
82 69 74 1
83 69 75 1
84 70 71 1
85 70 72 1
86 70 76 1
87 77 78 Ar
88 77 79 Ar
89 78 80 Ar
90 78 81 1
91 79 82 Ar
92 79 83 1
93 80 84 Ar
94 80 85 1
95 82 84 Ar
96 82 86 1
97 84 87 1
