# POH_COOH_8Cl_TD
# Created by GaussView 6.0.16
#

#
#

@<TRIPOS>MOLECULE
Molecule Name
84 90
SMALL
NO_CHARGES


@<TRIPOS>ATOM
1 C1     3.2238    -1.4601     0.1084 C
2 C2    -0.1160     2.1660     0.0264 C
3 C3    -3.5306    -1.3887    -0.0576 C
4 C4     0.5201    -3.8062     0.0677 C
5 C5     1.5854    -4.7308    -0.0019 C
6 C6     2.7654    -3.9989     0.0113 C
7 C7     2.4274    -2.6072     0.0867 C
8 N8     1.0512    -2.5373     0.1435 N
9 C9     2.6431    -0.1912     0.1195 C
10 C10     3.3405     1.0646     0.1816 C
11 C11     2.4208     2.0785     0.1601 C
12 C12     1.1067     1.4909     0.0867 C
13 N13     1.2689     0.1113     0.0772 N
14 C14    -1.3522     1.5168    -0.0313 C
15 C15    -2.6540     2.1318    -0.1046 C
16 C16    -3.5944     1.1376    -0.1254 C
17 C17    -2.9234    -0.1327    -0.0640 C
18 N18    -1.5433     0.1405    -0.0200 N
19 C19    -2.7588    -2.5531    -0.0329 C
20 C20    -3.1257    -3.9376     0.0348 C
21 C21    -1.9614    -4.6941     0.0534 C
22 C22    -0.8768    -3.7918    -0.0060 C
23 N23    -1.3815    -2.5117    -0.0800 N
24 C24    -5.0163    -1.5323    -0.0761 C
25 C25    -5.6863    -1.7185    -1.2908 C
26 C26    -7.0637    -1.8904    -1.3110 C
27 C27    -7.7954    -1.8677    -0.1168 C
28 C28    -7.1218    -1.6966     1.1003 C
29 C29    -5.7405    -1.5332     1.1194 C
30 C30    -0.1002     3.6609     0.0214 C
31 C31    -0.1924     4.3678     1.2213 C
32 C32    -0.1792     5.7609     1.2123 C
33 C33    -0.0726     6.4608     0.0112 C
34 C34     0.0203     5.7502    -1.1849 C
35 C35     0.0062     4.3571    -1.1838 C
36 C36     4.7063    -1.6305     0.1065 C
37 C37     5.4126    -1.6240    -1.1001 C
38 C38     6.7941    -1.7846    -1.1029 C
39 C39     7.4822    -1.9736     0.1021 C
40 C40     6.7687    -2.0209     1.3060 C
41 C41     5.3914    -1.8382     1.3085 C
42 H42    -7.5922    -2.0421    -2.2455 H
43 H43    -7.6551    -1.7280     2.0472 H
44 H44    -5.2192    -1.4108     2.0634 H
45 H45    -5.1228    -1.7267    -2.2184 H
46 H46     4.8776    -1.4879    -2.0347 H
47 H47     7.3314    -1.7887    -2.0454 H
48 H48     7.3036    -2.1990     2.2329 H
49 H49     4.8412    -1.8571     2.2441 H
50 C50    -9.2758    -2.0682    -0.2065 C
51 C51     8.9575    -2.2262     0.1435 C
52 O52   -10.0223    -1.6201     0.8328 O
53 O53    -9.8182    -2.6019    -1.1477 O
54 C54    -0.3525     6.5179     2.4997 C
55 C55     0.2060     6.4963    -2.4771 C
56 F56     1.5123     6.7608    -2.7143 F
57 F57    -0.2508     5.7933    -3.5358 F
58 F58    -0.4375     7.6840    -2.4685 F
59 F59    -1.6556     6.7944     2.7411 F
60 F60     0.1031     5.8179     3.5613 F
61 F61     0.3010     7.6999     2.4804 F
62 H62    -0.0627     7.5446     0.0072 H
63 H63     0.0746     3.8110    -2.1178 H
64 H64    -0.2720     3.8304     2.1594 H
65 O65     9.7760    -1.4653    -0.6203 O
66 O66     9.4387    -3.1091     0.8198 O
67 C67     9.3897    -0.1572    -1.0748 C
68 H68     9.0100    -0.1983    -2.0996 H
69 H69     8.6401     0.2958    -0.4217 H
70 H70    10.3007     0.4452    -1.0549 H
71 P71    -0.1501    -1.1134     0.0300 P
72 O72     0.0127    -1.0472    -1.6397 O
73 H73    -0.7059    -1.5456    -2.0653 H
74 O74    -0.3115    -1.0399     1.6997 O
75 H75     0.3972    -1.5523     2.1254 H
76 Cl76     2.8837     3.7378     0.2386 Cl
77 Cl77     5.0348     1.3514     0.3037 Cl
78 Cl78    -3.0828     3.8003    -0.1817 Cl
79 Cl79    -5.2829     1.4567    -0.2412 Cl
80 Cl80    -4.6998    -4.6297     0.1037 Cl
81 Cl81    -1.8973    -6.4072     0.1709 Cl
82 Cl82     1.4844    -6.4416    -0.1255 Cl
83 Cl83     4.3241    -4.7220    -0.0739 Cl
84 H84    -9.4760    -1.0931     1.4408 H
@<TRIPOS>BOND
1 1 7 Ar
2 1 9 Ar
3 1 36 1
4 2 12 Ar
5 2 14 Ar
6 2 30 1
7 3 17 Ar
8 3 19 Ar
9 3 24 1
10 4 5 Ar
11 4 8 Ar
12 4 22 Ar
13 5 6 Ar
14 5 82 1
15 6 7 Ar
16 6 83 1
17 7 8 Ar
18 9 10 Ar
19 9 13 1
20 10 11 2
21 10 77 1
22 11 12 Ar
23 11 76 1
24 12 13 1
25 14 15 Ar
26 14 18 1
27 15 16 2
28 15 78 1
29 16 17 Ar
30 16 79 1
31 17 18 1
32 19 20 Ar
33 19 23 Ar
34 20 21 Ar
35 20 80 1
36 21 22 Ar
37 21 81 1
38 22 23 Ar
39 24 25 Ar
40 24 29 Ar
41 25 26 Ar
42 25 45 1
43 26 27 Ar
44 26 42 1
45 27 28 Ar
46 27 50 1
47 28 29 Ar
48 28 43 1
49 29 44 1
50 30 31 Ar
51 30 35 Ar
52 31 32 Ar
53 31 64 1
54 32 33 Ar
55 32 54 1
56 33 34 Ar
57 33 62 1
58 34 35 Ar
59 34 55 1
60 35 63 1
61 36 37 Ar
62 36 41 Ar
63 37 38 Ar
64 37 46 1
65 38 39 Ar
66 38 47 1
67 39 40 Ar
68 39 51 1
69 40 41 Ar
70 40 48 1
71 41 49 1
72 50 52 1
73 50 53 2
74 51 65 1
75 51 66 2
76 52 84 1
77 54 59 1
78 54 60 1
79 54 61 1
80 55 56 1
81 55 57 1
82 55 58 1
83 65 67 1
84 67 68 1
85 67 69 1
86 67 70 1
87 71 72 1
88 71 74 1
89 72 73 1
90 74 75 1
