# POH_COOH_F_TD
# Created by GaussView 6.0.16
#

#
#

@<TRIPOS>MOLECULE
Molecule Name
84 94
SMALL
NO_CHARGES


@<TRIPOS>ATOM
1 C1    -3.1714    -1.9206    -0.1119 C
2 C2     0.1740     1.6743     0.0107 C
3 C3     3.5607    -1.8805     0.1287 C
4 C4    -0.4920    -4.2781    -0.0216 C
5 C5    -1.5610    -5.2013    -0.0035 C
6 C6    -2.7328    -4.4604    -0.0435 C
7 C7    -2.3824    -3.0782    -0.0953 C
8 N8    -1.0078    -3.0033    -0.0992 N
9 C9    -2.5741    -0.6568    -0.0881 C
10 C10    -3.2656     0.5926    -0.1724 C
11 C11    -2.3418     1.5983    -0.1374 C
12 C12    -1.0474     0.9981    -0.0359 C
13 N13    -1.2000    -0.3787    -0.0216 N
14 C14     1.4031     1.0133     0.0547 C
15 C15     2.6913     1.6286     0.1479 C
16 C16     3.6270     0.6341     0.1767 C
17 C17     2.9495    -0.6237     0.0989 C
18 N18     1.5721    -0.3621     0.0406 N
19 C19     2.7850    -3.0479     0.1296 C
20 C20     3.1506    -4.4265     0.0902 C
21 C21     1.9869    -5.1810     0.0631 C
22 C22     0.9080    -4.2698     0.0762 C
23 N23     1.4101    -2.9884     0.1397 N
24 C24     5.0384    -1.9999     0.1591 C
25 C25     5.6695    -2.7463     1.1697 C
26 C26     7.0500    -2.8937     1.1881 C
27 C27     7.8432    -2.2851     0.2067 C
28 C28     7.2207    -1.5424    -0.8064 C
29 C29     5.8364    -1.4054    -0.8311 C
30 C30     0.1638     3.1628     0.0119 C
31 C31     0.7437     3.8822    -1.0404 C
32 C32     0.7341     5.2771    -1.0337 C
33 C33     0.1416     5.9802     0.0139 C
34 C34    -0.4399     5.2664     1.0605 C
35 C35    -0.4276     3.8715     1.0651 C
36 C36    -4.6482    -2.0539    -0.1572 C
37 C37    -5.4614    -1.4607     0.8214 C
38 C38    -6.8460    -1.5871     0.7696 C
39 C39    -7.4506    -2.3307    -0.2520 C
40 C40    -6.6435    -2.9549    -1.2115 C
41 C41    -5.2623    -2.8048    -1.1741 C
42 H42    -1.4651    -6.2769     0.0518 H
43 H43    -3.7440    -4.8405    -0.0259 H
44 H44    -4.3365     0.6894    -0.2679 H
45 H45    -2.5241     2.6609    -0.1954 H
46 H46     2.8617     2.6933     0.2051 H
47 H47     4.6972     0.7442     0.2670 H
48 H48     4.1656    -4.7964     0.0724 H
49 H49     1.9029    -6.2581     0.0194 H
50 H50     7.5359    -3.4732     1.9653 H
51 H51     7.7963    -1.1034    -1.6178 H
52 H52     5.3629    -0.8581    -1.6392 H
53 H53     5.0670    -3.2027     1.9482 H
54 H54    -4.9998    -0.9138     1.6368 H
55 H55    -7.4508    -1.1371     1.5497 H
56 H56    -7.1108    -3.5491    -1.9898 H
57 H57    -4.6481    -3.2650    -1.9413 H
58 C58     9.3208    -2.5005     0.2767 C
59 C59    -8.9251    -2.5790    -0.3017 C
60 O60    10.1063    -1.6377    -0.4149 O
61 O61     9.8330    -3.3969     0.9097 O
62 C62     1.4184     6.0252    -2.1443 C
63 C63    -1.1354     6.0029     2.1721 C
64 F64    -2.4578     6.1534     1.9180 F
65 F65    -1.0376     5.3463     3.3487 F
66 F66    -0.6280     7.2409     2.3546 F
67 F67     2.7394     6.1907    -1.8925 F
68 F68     1.3262     5.3706    -3.3226 F
69 F69     0.8959     7.2575    -2.3226 F
70 H70     0.1333     7.0634     0.0148 H
71 H71    -0.8683     3.3280     1.8935 H
72 H72     1.1922     3.3470    -1.8699 H
73 O73    -9.7791    -1.5634    -0.0303 O
74 O74    -9.3823    -3.6740    -0.5504 O
75 C75    -9.3961    -0.1856    -0.1707 C
76 H76    -9.1220     0.2410     0.7986 H
77 H77    -8.5699    -0.0609    -0.8746 H
78 H78   -10.2791     0.3327    -0.5517 H
79 P79     0.1931    -1.6007     0.0144 P
80 O80     0.0415    -1.5296     1.6971 O
81 H81     0.7512    -2.0524     2.1058 H
82 O82     0.3433    -1.5423    -1.6691 O
83 H83    -0.3598    -2.0782    -2.0722 H
84 H84     9.5780    -0.8965    -0.7566 H
@<TRIPOS>BOND
1 1 7 Ar
2 1 9 Ar
3 1 36 1
4 2 12 Ar
5 2 14 Ar
6 2 30 1
7 3 17 Ar
8 3 19 Ar
9 3 24 1
10 4 5 Ar
11 4 8 Ar
12 4 22 Ar
13 5 6 Ar
14 5 42 1
15 6 7 Ar
16 6 43 1
17 7 8 Ar
18 8 79 1
19 9 10 Ar
20 9 13 1
21 10 11 2
22 10 44 1
23 11 12 Ar
24 11 45 1
25 12 13 1
26 13 79 1
27 14 15 Ar
28 14 18 1
29 15 16 2
30 15 46 1
31 16 17 Ar
32 16 47 1
33 17 18 1
34 18 79 1
35 19 20 Ar
36 19 23 Ar
37 20 21 Ar
38 20 48 1
39 21 22 Ar
40 21 49 1
41 22 23 Ar
42 23 79 1
43 24 25 Ar
44 24 29 Ar
45 25 26 Ar
46 25 53 1
47 26 27 Ar
48 26 50 1
49 27 28 Ar
50 27 58 1
51 28 29 Ar
52 28 51 1
53 29 52 1
54 30 31 Ar
55 30 35 Ar
56 31 32 Ar
57 31 72 1
58 32 33 Ar
59 32 62 1
60 33 34 Ar
61 33 70 1
62 34 35 Ar
63 34 63 1
64 35 71 1
65 36 37 Ar
66 36 41 Ar
67 37 38 Ar
68 37 54 1
69 38 39 Ar
70 38 55 1
71 39 40 Ar
72 39 59 1
73 40 41 Ar
74 40 56 1
75 41 57 1
76 58 60 1
77 58 61 2
78 59 73 1
79 59 74 2
80 60 84 1
81 62 67 1
82 62 68 1
83 62 69 1
84 63 64 1
85 63 65 1
86 63 66 1
87 73 75 1
88 75 76 1
89 75 77 1
90 75 78 1
91 79 80 1
92 79 82 1
93 80 81 1
94 82 83 1
