# Re_COOH3_OPT
# Created by GaussView 6.0.16
#

#
#

@<TRIPOS>MOLECULE
Molecule Name
75 85
SMALL
NO_CHARGES


@<TRIPOS>ATOM
1 C1    -3.3524    -1.2428    -0.0685 C
2 C2     3.3801    -1.1671    -0.1161 C
3 C3    -0.6672    -3.6324    -0.1300 C
4 C4    -1.7436    -4.5324    -0.3106 C
5 C5    -2.9206    -3.7909    -0.2564 C
6 C6    -2.5762    -2.4171    -0.0646 C
7 C7    -2.7832     0.0454    -0.0412 C
8 C8    -3.4751     1.2810    -0.2477 C
9 C9    -2.5529     2.2986    -0.2608 C
10 C10    -1.2585     1.7235    -0.0643 C
11 N11    -1.4165     0.3453     0.0812 N
12 C12     1.2282     1.7563    -0.0604 C
13 C13     2.5191     2.3654    -0.1564 C
14 C14     3.4604     1.3657    -0.1690 C
15 C15     2.7866     0.1082    -0.0599 C
16 N16     1.4097     0.3757     0.0313 N
17 C17     2.6254    -2.3552    -0.1357 C
18 C18     2.9963    -3.7197    -0.3403 C
19 C19     1.8357    -4.4883    -0.3681 C
20 C20     0.7437    -3.6138    -0.1588 C
21 N21     1.2537    -2.3314     0.0113 N
22 C22     7.0544    -0.8716     0.7635 C
23 C23     5.6691    -0.7624     0.8271 C
24 C24     4.8611    -1.2665    -0.2048 C
25 C25     5.4763    -1.8790    -1.3095 C
26 C26     6.8601    -1.9888    -1.3765 C
27 C27    -0.6785     6.0026     0.8776 C
28 C28    -0.6461     4.6140     0.9129 C
29 C29    -0.0534     3.8850    -0.1317 C
30 C30     0.4989     4.5844    -1.2164 C
31 C31     0.4707     5.9752    -1.2542 C
32 H32    -1.6588    -5.5975    -0.4801 H
33 H33    -3.9256    -4.1739    -0.3611 H
34 H34    -4.5396     1.3701    -0.4090 H
35 H35    -2.7454     3.3492    -0.4219 H
36 H36     2.7010     3.4280    -0.2201 H
37 H37     4.5296     1.4852    -0.2680 H
38 H38     4.0076    -4.0787    -0.4679 H
39 H39     1.7714    -5.5552    -0.5352 H
40 H40     7.6671    -0.4869     1.5706 H
41 H41     5.2010    -0.2961     1.6883 H
42 H42     4.8619    -2.2557    -2.1209 H
43 H43     7.3396    -2.4548    -2.2305 H
44 H44    -1.1285     6.5691     1.6856 H
45 H45    -1.0713     4.0815     1.7579 H
46 H46     0.9433     4.0300    -2.0368 H
47 H47     0.8971     6.5045    -2.0986 H
48 C48    -0.1180     6.6933    -0.2047 C
49 C49    -0.1738     8.1760    -0.1907 C
50 O50    -0.6878     8.8433     0.6873 O
51 O51     0.4156     8.7403    -1.2708 O
52 H52     0.3212     9.7056    -1.1569 H
53 C53     7.6591    -1.4884    -0.3401 C
54 C54     9.1308    -1.6356    -0.4576 C
55 O55     9.7038    -2.1705    -1.3882 O
56 O56     9.8025    -1.1070     0.5922 O
57 H57    10.7500    -1.2604     0.4122 H
58 C58    -0.0233     2.3960    -0.0739 C
59 N59    -1.2028    -2.3635     0.0606 N
60 C60    -4.8293    -1.3656    -0.1842 C
61 C61    -5.4150    -2.0403    -1.2689 C
62 C62    -5.6685    -0.8167     0.7976 C
63 C63    -6.7953    -2.1659    -1.3644 C
64 H64    -4.7797    -2.4544    -2.0448 H
65 C65    -7.0518    -0.9341     0.6977 C
66 H66    -5.2293    -0.3132     1.6526 H
67 C67    -7.6304    -1.6059    -0.3884 C
68 H68    -7.2483    -2.6881    -2.1999 H
69 H69    -7.6622    -0.5321     1.5028 H
70 C70    -9.1052    -1.7916    -0.5497 C
71 O71    -9.9156    -0.9668     0.1587 O
72 H72    -9.3977    -0.2642     0.5870 H
73 O73    -9.5942    -2.6311    -1.2729 O
74 Re74     0.0200    -0.9209     0.7608 Re
75 O75     0.0454    -0.8852     2.4603 O
@<TRIPOS>BOND
1 1 6 Ar
2 1 7 Ar
3 1 60 1
4 2 15 Ar
5 2 17 Ar
6 2 24 1
7 3 4 Ar
8 3 20 Ar
9 3 59 1
10 4 5 Ar
11 4 32 1
12 5 6 Ar
13 5 33 1
14 6 59 Ar
15 7 8 Ar
16 7 11 1
17 8 9 2
18 8 34 1
19 9 10 Ar
20 9 35 1
21 10 11 1
22 10 58 Ar
23 11 74 1
24 12 13 Ar
25 12 16 1
26 12 58 Ar
27 13 14 2
28 13 36 1
29 14 15 Ar
30 14 37 1
31 15 16 1
32 16 74 1
33 17 18 Ar
34 17 21 Ar
35 18 19 Ar
36 18 38 1
37 19 20 Ar
38 19 39 1
39 20 21 1
40 21 74 1
41 22 23 Ar
42 22 40 1
43 22 53 Ar
44 23 24 Ar
45 23 41 1
46 24 25 Ar
47 25 26 Ar
48 25 42 1
49 26 43 1
50 26 53 Ar
51 27 28 Ar
52 27 44 1
53 27 48 Ar
54 28 29 Ar
55 28 45 1
56 29 30 Ar
57 29 58 1
58 30 31 Ar
59 30 46 1
60 31 47 1
61 31 48 Ar
62 48 49 1
63 49 50 2
64 49 51 1
65 51 52 1
66 53 54 1
67 54 55 2
68 54 56 1
69 56 57 1
70 59 74 1
71 60 61 Ar
72 60 62 Ar
73 61 63 Ar
74 61 64 1
75 62 65 Ar
76 62 66 1
77 63 67 Ar
78 63 68 1
79 65 67 Ar
80 65 69 1
81 67 70 1
82 70 71 1
83 70 73 2
84 71 72 1
85 74 75 1
