# SF5_OPT_TD
# Created by GaussView 6.0.16
#

#
#

@<TRIPOS>MOLECULE
Molecule Name
83 90
SMALL
NO_CHARGES


@<TRIPOS>ATOM
1 C1     2.9244    -2.2959    -0.5623 C
2 C2     0.5030     1.9564    -0.3203 C
3 C3    -3.7269    -0.5801    -0.3154 C
4 C4    -0.2799    -3.8914    -0.3495 C
5 C5     0.5031    -5.0738    -0.4201 C
6 C6     1.8423    -4.6933    -0.4724 C
7 C7     1.8960    -3.2664    -0.4535 C
8 C8     2.6496    -0.9084    -0.5649 C
9 C9     3.6286     0.1569    -0.7217 C
10 C10     2.9463     1.3329    -0.6563 C
11 C11     1.5412     0.9987    -0.4717 C
12 N12     1.3875    -0.3536    -0.4387 N
13 C13    -0.8696     1.6847    -0.2144 C
14 C14    -1.9361     2.5769     0.1288 C
15 C15    -3.1172     1.8734     0.1216 C
16 C16    -2.8415     0.5123    -0.2302 C
17 C17    -3.2585    -1.9210    -0.3614 C
18 C18    -3.8379    -3.1369    -0.8081 C
19 C19    -2.8565    -4.1320    -0.7820 C
20 C20    -1.6565    -3.5487    -0.3272 C
21 H21     3.3540     2.3303    -0.7443 H
22 H22    -2.9614    -5.1487    -1.1350 H
23 H23    -4.8491    -3.2465    -1.1730 H
24 H24    -1.8051     3.6153     0.3962 H
25 H25    -4.0930     2.2487     0.3930 H
26 H26     4.6921     0.0296    -0.8655 H
27 C27     4.3228    -2.7716    -0.6966 C
28 C28     4.6690    -3.6939    -1.6949 C
29 C29     5.3190    -2.3079     0.1779 C
30 C30     5.9848    -4.1190    -1.8040 C
31 C31     6.6252    -2.7526     0.0169 C
32 C32     6.9950    -3.6638    -0.9678 C
33 C33    -5.1821    -0.3416    -0.3886 C
34 C34    -6.0670    -1.1772     0.3165 C
35 C35    -5.7138     0.6889    -1.1811 C
36 C36    -7.4351    -0.9731     0.2035 C
37 C37    -7.0877     0.8643    -1.2428 C
38 C38    -7.9846     0.0462    -0.5687 C
39 C39     0.8892     3.3906    -0.2350 C
40 C40     0.4626     4.3255    -1.1815 C
41 C41     1.6926     3.8848     0.7988 C
42 C42     0.8211     5.6673    -1.1159 C
43 C43     2.0501     5.2237     0.8853 C
44 C44     1.6158     6.1506    -0.0712 C
45 H45     0.1159    -6.0834    -0.4120 H
46 H46     2.6954    -5.3549    -0.5181 H
47 N47    -1.9466    -2.2248    -0.0607 N
48 H48    -1.3895    -1.6551     0.5629 H
49 N49     0.6010    -2.8476    -0.3505 N
50 H50     0.4272    -1.8354    -0.3878 H
51 N51    -1.4588     0.4501    -0.4000 N
52 H52    -0.9671    -0.2899    -0.8809 H
53 H53    -9.0499     0.2084    -0.6607 H
54 H54     8.0106    -4.0122    -1.0968 H
55 H55     5.0576    -1.6191     0.9688 H
56 H56     3.9310    -4.0610    -2.3981 H
57 H57    -5.6736    -1.9625     0.9461 H
58 H58    -5.0701     1.3334    -1.7676 H
59 F59     6.3041    -4.9989    -2.7733 F
60 F60    -7.5802     1.8554    -2.0109 F
61 S61     7.9105    -2.1161     1.1383 S
62 S62    -8.5602    -2.0867     1.1039 S
63 F63     8.5736    -3.5930     1.3370 F
64 F64     9.0580    -1.5450     2.1366 F
65 F65     6.9818    -2.3552     2.4562 F
66 F66     7.3492    -0.5884     1.0254 F
67 F67     8.9388    -1.8269    -0.0946 F
68 F68    -7.7050    -3.4087     0.6745 F
69 F69    -9.5175    -2.2842    -0.2016 F
70 F70    -9.5628    -3.0841     1.9034 F
71 F71    -9.5030    -0.8534     1.6022 F
72 F72    -7.6884    -1.9757     2.4771 F
73 F73    -0.3028     3.9351    -2.2148 F
74 F74     0.3981     6.5027    -2.0869 F
75 F75     2.1248     3.0575     1.7635 F
76 F76     2.8050     5.6423     1.9104 F
77 O77     2.0379     7.4314     0.0558 O
78 C78     1.0711     8.4812    -0.2021 C
79 H79     1.0283     8.6848    -1.2763 H
80 H80     0.0765     8.1523     0.1236 H
81 C81     1.4827     9.6694     0.5315 C
82 C82     1.8030    10.6682     1.1269 C
83 H83     2.0935    11.5480     1.6590 H
@<TRIPOS>BOND
1 1 7 Ar
2 1 8 Ar
3 1 27 1
4 2 11 Ar
5 2 13 Ar
6 2 39 1
7 3 16 Ar
8 3 17 Ar
9 3 33 1
10 4 5 Ar
11 4 20 Ar
12 4 49 Ar
13 5 6 Ar
14 5 45 1
15 6 7 Ar
16 6 46 1
17 7 49 Ar
18 8 9 1
19 8 12 1
20 9 10 2
21 9 26 1
22 10 11 1
23 10 21 1
24 11 12 Ar
25 13 14 Ar
26 13 51 Ar
27 14 15 2
28 14 24 1
29 15 16 Ar
30 15 25 1
31 16 51 1
32 17 18 Ar
33 17 47 Ar
34 18 19 Ar
35 18 23 1
36 19 20 Ar
37 19 22 1
38 20 47 Ar
39 27 28 Ar
40 27 29 Ar
41 28 30 Ar
42 28 56 1
43 29 31 Ar
44 29 55 1
45 30 32 Ar
46 30 59 1
47 31 32 Ar
48 31 61 1
49 32 54 1
50 33 34 Ar
51 33 35 Ar
52 34 36 Ar
53 34 57 1
54 35 37 Ar
55 35 58 1
56 36 38 Ar
57 36 62 1
58 37 38 Ar
59 37 60 1
60 38 53 1
61 39 40 Ar
62 39 41 Ar
63 40 42 Ar
64 40 73 1
65 41 43 Ar
66 41 75 1
67 42 44 Ar
68 42 74 1
69 43 44 Ar
70 43 76 1
71 44 77 1
72 47 48 1
73 49 50 1
74 51 52 1
75 61 63 1
76 61 64 1
77 61 65 1
78 61 66 1
79 61 67 1
80 62 68 1
81 62 69 1
82 62 70 1
83 62 71 1
84 62 72 1
85 77 78 1
86 78 79 1
87 78 80 1
88 78 81 1
89 81 82 3
90 82 83 1
