# Sn_Cl_OPT
# Created by GaussView 6.0.16
#

#
#

@<TRIPOS>MOLECULE
Molecule Name
66 76
SMALL
NO_CHARGES


@<TRIPOS>ATOM
1 C1    -3.3743    -0.9489    -0.1815 C
2 C2     3.3947    -0.8873    -0.1799 C
3 C3    -0.6845    -3.3536    -0.2123 C
4 C4    -1.7565    -4.2532    -0.4563 C
5 C5    -2.9410    -3.5184    -0.4192 C
6 C6    -2.6087    -2.1459    -0.1716 C
7 C7    -2.8188     0.3537    -0.1380 C
8 C8    -3.4994     1.5972    -0.3696 C
9 C9    -2.5758     2.6164    -0.3667 C
10 C10    -1.2782     2.0485    -0.1348 C
11 N11    -1.4657     0.6809     0.0101 N
12 C12     1.2469     2.0744    -0.1296 C
13 C13     2.5459     2.6715    -0.2600 C
14 C14     3.4849     1.6665    -0.2733 C
15 C15     2.8160     0.4039    -0.1304 C
16 N16     1.4503     0.7030    -0.0351 N
17 C17     2.6507    -2.0978    -0.1864 C
18 C18     3.0077    -3.4635    -0.4364 C
19 C19     1.8367    -4.2201    -0.4689 C
20 C20     0.7490    -3.3405    -0.2196 C
21 N21     1.2888    -2.0889    -0.0302 N
22 C22     7.0898    -0.5518     0.6196 C
23 C23     5.7017    -0.4589     0.7171 C
24 C24     4.8769    -0.9795    -0.2924 C
25 C25     5.4773    -1.5930    -1.4033 C
26 C26     6.8656    -1.6873    -1.4986 C
27 C27    -0.6746     6.3486     0.6976 C
28 C28    -0.6366     4.9568     0.7798 C
29 C29    -0.0493     4.1945    -0.2419 C
30 C30     0.4944     4.8614    -1.3508 C
31 C31     0.4607     6.2535    -1.4308 C
32 H32    -1.6628    -5.3119    -0.6586 H
33 H33    -3.9377    -3.9029    -0.5821 H
34 H34    -4.5587     1.6877    -0.5616 H
35 H35    -2.7657     3.6630    -0.5543 H
36 H36     2.7327     3.7303    -0.3607 H
37 H37     4.5513     1.7841    -0.3996 H
38 H38     4.0109    -3.8292    -0.6028 H
39 H39     1.7620    -5.2807    -0.6696 H
40 H40     7.7127    -0.1483     1.4131 H
41 H41     5.2459     0.0080     1.5850 H
42 H42     4.8498    -1.9806    -2.1999 H
43 H43     7.3139    -2.1597    -2.3684 H
44 H44    -1.1293     6.9229     1.5000 H
45 H45    -1.0561     4.4505     1.6440 H
46 H46     0.9338     4.2809    -2.1564 H
47 H47     0.8838     6.7526    -2.2981 H
48 C48    -0.1236     7.0015    -0.4068 C
49 C49     7.6763    -1.1677    -0.4876 C
50 C50    -0.0217     2.7048    -0.1478 C
51 N51    -1.2465    -2.1124    -0.0162 N
52 C52    -4.8519    -1.0636    -0.3232 C
53 C53    -5.4230    -1.7185    -1.4263 C
54 C54    -5.7042    -0.5155     0.6487 C
55 C55    -6.8079    -1.8272    -1.5495 C
56 H56    -4.7754    -2.1251    -2.1967 H
57 C57    -7.0888    -0.6228     0.5232 C
58 H58    -5.2724    -0.0154     1.5102 H
59 C59    -7.6456    -1.2805    -0.5753 C
60 H60    -7.2328    -2.3310    -2.4133 H
61 H61    -7.7324    -0.1974     1.2882 H
62 H62    -8.7243    -1.3646    -0.6726 H
63 H63     8.7576    -1.2409    -0.5627 H
64 H64    -0.1509     8.0857    -0.4699 H
65 Sn65     0.0108    -0.6039     0.6243 Sn
66 Cl66     0.0384    -0.5827     3.0218 Cl
@<TRIPOS>BOND
1 1 6 Ar
2 1 7 Ar
3 1 52 1
4 2 15 Ar
5 2 17 Ar
6 2 24 1
7 3 4 Ar
8 3 20 Ar
9 3 51 Ar
10 4 5 Ar
11 4 32 1
12 5 6 Ar
13 5 33 1
14 6 51 Ar
15 7 8 Ar
16 7 11 1
17 8 9 2
18 8 34 1
19 9 10 Ar
20 9 35 1
21 10 11 1
22 10 50 Ar
23 11 65 1
24 12 13 Ar
25 12 16 1
26 12 50 Ar
27 13 14 2
28 13 36 1
29 14 15 Ar
30 14 37 1
31 15 16 1
32 16 65 1
33 17 18 Ar
34 17 21 Ar
35 18 19 Ar
36 18 38 1
37 19 20 Ar
38 19 39 1
39 20 21 Ar
40 21 65 1
41 22 23 Ar
42 22 40 1
43 22 49 Ar
44 23 24 Ar
45 23 41 1
46 24 25 Ar
47 25 26 Ar
48 25 42 1
49 26 43 1
50 26 49 Ar
51 27 28 Ar
52 27 44 1
53 27 48 Ar
54 28 29 Ar
55 28 45 1
56 29 30 Ar
57 29 50 1
58 30 31 Ar
59 30 46 1
60 31 47 1
61 31 48 Ar
62 48 64 1
63 49 63 1
64 51 65 1
65 52 53 Ar
66 52 54 Ar
67 53 55 Ar
68 53 56 1
69 54 57 Ar
70 54 58 1
71 55 59 Ar
72 55 60 1
73 57 59 Ar
74 57 61 1
75 59 62 1
76 65 66 1
