# Sn_Cl_S3_OPT.
# Created by GaussView 6.0.16
#

#
#

@<TRIPOS>MOLECULE
Molecule Name
57 67
SMALL
NO_CHARGES


@<TRIPOS>ATOM
1 C1    -3.3938    -0.8909    -0.0906 C
2 C2     3.3828    -0.8862    -0.0870 C
3 C3    -0.7200    -3.3122    -0.1958 C
4 C4    -1.7980    -4.2024    -0.4436 C
5 C5    -2.9784    -3.4628    -0.3826 C
6 C6    -2.6369    -2.0966    -0.1155 C
7 C7    -2.8247     0.4088    -0.0324 C
8 C8    -3.4916     1.6610    -0.2561 C
9 C9    -2.5591     2.6713    -0.2293 C
10 C10    -1.2708     2.0870     0.0070 C
11 N11    -1.4707     0.7202     0.1327 N
12 C12     1.2587     2.0927     0.0192 C
13 C13     2.5592     2.6827    -0.1123 C
14 C14     3.4898     1.6707    -0.1523 C
15 C15     2.8119     0.4121    -0.0236 C
16 N16     1.4503     0.7192     0.0870 N
17 C17     2.6278    -2.0923    -0.1276 C
18 C18     2.9715    -3.4582    -0.3938 C
19 C19     1.7922    -4.1999    -0.4513 C
20 C20     0.7130    -3.3109    -0.2021 C
21 N21     1.2645    -2.0678     0.0085 N
22 H22    -1.7122    -5.2581    -0.6637 H
23 H23    -3.9766    -3.8446    -0.5396 H
24 H24    -4.5469     1.7609    -0.4619 H
25 H25    -2.7337     3.7226    -0.4047 H
26 H26     2.7543     3.7410    -0.1997 H
27 H27     4.5548     1.7796    -0.2931 H
28 H28     3.9702    -3.8383    -0.5523 H
29 H29     1.7079    -5.2564    -0.6677 H
30 C30    -0.0069     2.7325     0.0140 C
31 N31    -1.2733    -2.0705     0.0222 N
32 Sn32    -0.0025    -0.5930     0.7073 Sn
33 Cl33     0.0282    -0.6441     3.1006 Cl
34 C34    -4.8601    -0.9630    -0.1996 C
35 C35    -5.7927    -0.4038     0.6429 C
36 S36    -5.6618    -1.7620    -1.5431 S
37 C37    -7.1403    -0.6205     0.2293 C
38 H38    -5.5108     0.1343     1.5409 H
39 C39    -7.2283    -1.3374    -0.9326 C
40 H40    -8.0046    -0.2643     0.7789 H
41 H41    -8.1184    -1.6498    -1.4631 H
42 C42     4.8517    -0.9607    -0.1665 C
43 C43     5.7701    -0.4348     0.7118 C
44 S44     5.6744    -1.7235    -1.5176 S
45 C45     7.1245    -0.6466     0.3173 C
46 H46     5.4734     0.0765     1.6205 H
47 C47     7.2314    -1.3272    -0.8645 C
48 H48     7.9798    -0.3130     0.8945 H
49 H49     8.1299    -1.6285    -1.3872 H
50 C50    -0.0412     4.2094    -0.0448 C
51 C51    -0.5611     5.0728     0.8887 C
52 S52     0.5165     5.1022    -1.4509 S
53 C53    -0.5021     6.4441     0.4960 C
54 H54    -0.9672     4.7265     1.8327 H
55 C55     0.0552     6.6160    -0.7412 C
56 H56    -0.8527     7.2643     1.1128 H
57 H57     0.2319     7.5410    -1.2748 H
@<TRIPOS>BOND
1 1 6 Ar
2 1 7 Ar
3 1 34 1
4 2 15 Ar
5 2 17 Ar
6 2 42 1
7 3 4 Ar
8 3 20 Ar
9 3 31 Ar
10 4 5 Ar
11 4 22 1
12 5 6 Ar
13 5 23 1
14 6 31 Ar
15 7 8 Ar
16 7 11 1
17 8 9 2
18 8 24 1
19 9 10 Ar
20 9 25 1
21 10 11 1
22 10 30 Ar
23 11 32 1
24 12 13 Ar
25 12 16 1
26 12 30 Ar
27 13 14 2
28 13 26 1
29 14 15 Ar
30 14 27 1
31 15 16 1
32 16 32 1
33 17 18 Ar
34 17 21 Ar
35 18 19 Ar
36 18 28 1
37 19 20 Ar
38 19 29 1
39 20 21 Ar
40 21 32 1
41 30 50 1
42 31 32 1
43 32 33 1
44 34 35 2
45 34 36 1
46 35 37 Ar
47 35 38 1
48 36 39 1
49 37 39 2
50 37 40 1
51 39 41 1
52 42 43 2
53 42 44 1
54 43 45 Ar
55 43 46 1
56 44 47 1
57 45 47 2
58 45 48 1
59 47 49 1
60 50 51 2
61 50 52 1
62 51 53 Ar
63 51 54 1
64 52 55 1
65 53 55 2
66 53 56 1
67 55 57 1
