# Sn_S3_Cl_OPT
# Created by GaussView 6.0.16
#

#
#

@<TRIPOS>MOLECULE
Molecule Name
69 79
SMALL
NO_CHARGES


@<TRIPOS>ATOM
1 C1    -3.3835    -1.1717    -0.1110 C
2 C2     3.3895    -1.1601    -0.1181 C
3 C3    -0.7099    -3.5965    -0.1642 C
4 C4    -1.7886    -4.4870    -0.4119 C
5 C5    -2.9678    -3.7434    -0.3702 C
6 C6    -2.6254    -2.3748    -0.1160 C
7 C7    -2.8181     0.1258    -0.0526 C
8 C8    -3.4900     1.3820    -0.2449 C
9 C9    -2.5576     2.3934    -0.2227 C
10 C10    -1.2632     1.8057    -0.0288 C
11 N11    -1.4602     0.4364     0.0855 N
12 C12     1.2587     1.8099    -0.0351 C
13 C13     2.5509     2.4020    -0.2298 C
14 C14     3.4867     1.3939    -0.2535 C
15 C15     2.8193     0.1353    -0.0611 C
16 N16     1.4604     0.4411     0.0777 N
17 C17     2.6357    -2.3659    -0.1219 C
18 C18     2.9823    -3.7337    -0.3751 C
19 C19     1.8055    -4.4812    -0.4148 C
20 C20     0.7242    -3.5941    -0.1662 C
21 N21     1.2731    -2.3476     0.0314 N
22 H22    -1.7034    -5.5457    -0.6178 H
23 H23    -3.9673    -4.1213    -0.5313 H
24 H24    -4.5509     1.4880    -0.4191 H
25 H25    -2.7390     3.4486    -0.3700 H
26 H26     2.7286     3.4580    -0.3753 H
27 H27     4.5473     1.5036    -0.4277 H
28 H28     3.9829    -4.1085    -0.5370 H
29 H29     1.7236    -5.5404    -0.6195 H
30 C30    -0.0033     2.4461    -0.0394 C
31 N31    -1.2627    -2.3520     0.0358 N
32 Sn32     0.0037    -0.8623     0.7026 Sn
33 Cl33     0.0094    -0.8740     3.0989 Cl
34 C34    -4.8608    -1.2760    -0.2455 C
35 C35    -5.4464    -1.9236    -1.3439 C
36 C36    -5.7112    -0.7289     0.7283 C
37 C37    -6.8295    -2.0297    -1.4653 C
38 H38    -4.8115    -2.3330    -2.1233 H
39 C39    -7.0944    -0.8293     0.6160 C
40 H40    -5.2800    -0.2314     1.5914 H
41 C41    -7.6647    -1.4848    -0.4828 C
42 H42    -7.2544    -2.5277    -2.3321 H
43 H43    -7.7285    -0.4041     1.3888 H
44 C44    -0.0070     3.9407    -0.1216 C
45 C45     0.0231     4.5976    -1.3578 C
46 C46    -0.0433     4.7151     1.0452 C
47 C47     0.0163     5.9895    -1.4316 C
48 H48     0.0511     4.0129    -2.2726 H
49 C49    -0.0511     6.1062     0.9838 C
50 H50    -0.0662     4.2204     2.0118 H
51 C51    -0.0221     6.7526    -0.2587 C
52 H52     0.0411     6.4762    -2.4023 H
53 H53    -0.0807     6.6858     1.9023 H
54 C54     4.8675    -1.2594    -0.2494 C
55 C55     5.4584    -1.9071    -1.3450 C
56 C56     5.7133    -0.7081     0.7261 C
57 C57     6.8422    -2.0093    -1.4619 C
58 H58     4.8272    -2.3198    -2.1256 H
59 C59     7.0971    -0.8047     0.6183 C
60 H60     5.2780    -0.2108     1.5871 H
61 C61     7.6728    -1.4604    -0.4776 C
62 H62     7.2713    -2.5074    -2.3265 H
63 H63     7.7274    -0.3766     1.3925 H
64 S64    -9.4446    -1.5875    -0.5677 S
65 H65    -9.5092    -2.2671    -1.7308 H
66 S66    -0.0369     8.5387    -0.2750 S
67 H67    -0.0148     8.6863    -1.6154 H
68 S68     9.4532    -1.5581    -0.5566 S
69 H69     9.5236    -2.2414    -1.7172 H
@<TRIPOS>BOND
1 1 6 Ar
2 1 7 Ar
3 1 34 1
4 2 15 Ar
5 2 17 Ar
6 2 54 1
7 3 4 Ar
8 3 20 Ar
9 3 31 Ar
10 4 5 Ar
11 4 22 1
12 5 6 Ar
13 5 23 1
14 6 31 Ar
15 7 8 Ar
16 7 11 1
17 8 9 2
18 8 24 1
19 9 10 Ar
20 9 25 1
21 10 11 1
22 10 30 Ar
23 11 32 1
24 12 13 Ar
25 12 16 1
26 12 30 Ar
27 13 14 2
28 13 26 1
29 14 15 Ar
30 14 27 1
31 15 16 1
32 16 32 1
33 17 18 Ar
34 17 21 Ar
35 18 19 Ar
36 18 28 1
37 19 20 Ar
38 19 29 1
39 20 21 Ar
40 21 32 1
41 30 44 1
42 31 32 1
43 32 33 1
44 34 35 Ar
45 34 36 Ar
46 35 37 Ar
47 35 38 1
48 36 39 Ar
49 36 40 1
50 37 41 Ar
51 37 42 1
52 39 41 Ar
53 39 43 1
54 41 64 1
55 44 45 Ar
56 44 46 Ar
57 45 47 Ar
58 45 48 1
59 46 49 Ar
60 46 50 1
61 47 51 Ar
62 47 52 1
63 49 51 Ar
64 49 53 1
65 51 66 1
66 54 55 Ar
67 54 56 Ar
68 55 57 Ar
69 55 58 1
70 56 59 Ar
71 56 60 1
72 57 61 Ar
73 57 62 1
74 59 61 Ar
75 59 63 1
76 61 68 1
77 64 65 1
78 66 67 1
79 68 69 1
