# 1Cu_Br_H
# Created by GaussView 6.0.16
#

#
#

@<TRIPOS>MOLECULE
Molecule Name
65 75
SMALL
NO_CHARGES


@<TRIPOS>ATOM
1 C1    -3.3657     0.4554     0.1586 C
2 C2    -0.0001    -3.1224    -0.0000 C
3 C3     3.3657     0.4552    -0.1586 C
4 C4    -0.7101     2.8252     0.0870 C
5 C5    -1.7137     3.6936     0.6052 C
6 C6    -2.8815     2.9526     0.7179 C
7 C7    -2.5961     1.6187     0.2443 C
8 N8    -1.2659     1.6106    -0.1555 N
9 C9    -2.7607    -0.8090    -0.1235 C
10 C10    -3.3748    -1.9496    -0.7547 C
11 C11    -2.4299    -2.9523    -0.8261 C
12 C12    -1.2209    -2.4490    -0.2279 C
13 N13    -1.4505    -1.1365     0.1654 N
14 C14     1.2207    -2.4491     0.2279 C
15 C15     2.4297    -2.9524     0.8261 C
16 C16     3.3747    -1.9498     0.7546 C
17 C17     2.7607    -0.8091     0.1235 C
18 N18     1.4505    -1.1366    -0.1654 N
19 C19     2.5962     1.6186    -0.2443 C
20 C20     2.8817     2.9525    -0.7179 C
21 C21     1.7139     3.6935    -0.6053 C
22 C22     0.7103     2.8252    -0.0871 C
23 N23     1.2659     1.6105     0.1554 N
24 C24     4.8325     0.5218    -0.3250 C
25 C25     5.4641    -0.2506    -1.3105 C
26 C26     6.8460    -0.1914    -1.4674 C
27 C27     7.6113     0.6159    -0.6225 C
28 C28     6.9893     1.3769     0.3703 C
29 C29     5.6055     1.3414     0.5102 C
30 C30    -4.8325     0.5220     0.3250 C
31 C31    -5.4640    -0.2502     1.3106 C
32 C32    -6.8460    -0.1910     1.4674 C
33 C33    -7.6113     0.6163     0.6226 C
34 C34    -6.9893     1.3772    -0.3703 C
35 C35    -5.6055     1.3417    -0.5102 C
36 C36    -0.0001    -4.6018     0.0000 C
37 C37    -0.8192    -5.3086     0.8926 C
38 C38    -0.8065    -6.6999     0.9024 C
39 C39    -0.0002    -7.3979     0.0001 C
40 C40     0.8061    -6.7000    -0.9023 C
41 C41     0.8190    -5.3087    -0.8925 C
42 H42    -7.5825     2.0021    -1.0314 H
43 H43    -5.1155     1.9298    -1.2796 H
44 H44    -4.8651    -0.8857     1.9559 H
45 H45    -7.3273    -0.7808     2.2420 H
46 H46     4.8652    -0.8861    -1.9558 H
47 H47     7.3273    -0.7813    -2.2419 H
48 H48     7.5825     2.0018     1.0314 H
49 H49     5.1155     1.9296     1.2796 H
50 H50     1.4494    -4.7610    -1.5861 H
51 H51     1.4307    -7.2407    -1.6073 H
52 H52    -1.4497    -4.7609     1.5862 H
53 H53    -1.4310    -7.2405     1.6075 H
54 Cu54    -0.0000     0.1450    -0.0000 Cu
55 H55    -0.0002    -8.4843     0.0001 H
56 H56    -8.6910     0.6514     0.7371 H
57 H57     8.6910     0.6510    -0.7370 H
58 Br58     5.0831    -2.0735     1.5278 Br
59 Br59     2.6962    -4.5692     1.7468 Br
60 Br60    -5.0832    -2.0732    -1.5279 Br
61 Br61    -4.4332     3.5900     1.5626 Br
62 Br62    -1.4679     5.4676     1.1520 Br
63 Br63     1.4682     5.4675    -1.1521 Br
64 Br64     4.4335     3.5898    -1.5625 Br
65 Br65    -2.6965    -4.5690    -1.7468 Br
@<TRIPOS>BOND
1 1 7 Ar
2 1 9 Ar
3 1 30 1
4 2 12 Ar
5 2 14 Ar
6 2 36 1
7 3 17 Ar
8 3 19 Ar
9 3 24 1
10 4 5 Ar
11 4 8 Ar
12 4 22 Ar
13 5 6 Ar
14 5 62 1
15 6 7 Ar
16 6 61 1
17 7 8 1
18 8 54 1
19 9 10 Ar
20 9 13 Ar
21 10 11 2
22 10 60 1
23 11 12 Ar
24 11 65 1
25 12 13 1
26 13 54 1
27 14 15 Ar
28 14 18 1
29 15 16 2
30 15 59 1
31 16 17 Ar
32 16 58 1
33 17 18 Ar
34 18 54 1
35 19 20 Ar
36 19 23 1
37 20 21 Ar
38 20 64 1
39 21 22 Ar
40 21 63 1
41 22 23 Ar
42 23 54 1
43 24 25 Ar
44 24 29 Ar
45 25 26 Ar
46 25 46 1
47 26 27 Ar
48 26 47 1
49 27 28 Ar
50 27 57 1
51 28 29 Ar
52 28 48 1
53 29 49 1
54 30 31 Ar
55 30 35 Ar
56 31 32 Ar
57 31 44 1
58 32 33 Ar
59 32 45 1
60 33 34 Ar
61 33 56 1
62 34 35 Ar
63 34 42 1
64 35 43 1
65 36 37 Ar
66 36 41 Ar
67 37 38 Ar
68 37 52 1
69 38 39 Ar
70 38 53 1
71 39 40 Ar
72 39 55 1
73 40 41 Ar
74 40 51 1
75 41 50 1
