# 1Cu_H_CF3
# Created by GaussView 6.0.16
#

#
#

@<TRIPOS>MOLECULE
Molecule Name
74 84
SMALL
NO_CHARGES


@<TRIPOS>ATOM
1 C1     3.3311     1.4739     0.0230 C
2 C2     0.0218    -2.1593     0.0034 C
3 C3    -3.3905     1.3774    -0.0034 C
4 C4     0.6455     3.8137     0.0277 C
5 C5     1.7145     4.7473    -0.1115 C
6 C6     2.8929     4.0212    -0.0894 C
7 C7     2.5474     2.6318     0.0444 C
8 N8     1.1806     2.5655     0.1879 N
9 C9     2.7605     0.1802     0.0342 C
10 C10     3.4694    -1.0551     0.2194 C
11 C11     2.5502    -2.0709     0.2195 C
12 C12     1.2557    -1.4830     0.0150 C
13 N13     1.4146    -0.1159    -0.1369 N
14 C14    -1.2310    -1.5188    -0.0039 C
15 C15    -2.5078    -2.1428    -0.2121 C
16 C16    -3.4562    -1.1542    -0.2076 C
17 C17    -2.7833     0.1004    -0.0165 C
18 N18    -1.4294    -0.1575     0.1547 N
19 C19    -2.6400     2.5572    -0.0221 C
20 C20    -3.0253     3.9361     0.1116 C
21 C21    -1.8683     4.6958     0.1359 C
22 C22    -0.7728     3.7932    -0.0016 C
23 N23    -1.2717     2.5303    -0.1634 N
24 C24    -4.8755     1.4830     0.0014 C
25 C25    -5.5406     2.0429     1.1019 C
26 C26    -6.9275     2.1700     1.1045 C
27 C27    -7.6668     1.7326     0.0039 C
28 C28    -7.0175     1.1727    -1.0996 C
29 C29    -5.6311     1.0515    -1.0996 C
30 C30     4.8129     1.6190     0.0167 C
31 C31     5.4626     2.1981    -1.0836 C
32 C32     6.8454     2.3591    -1.0872 C
33 C33     7.5968     1.9409     0.0136 C
34 C34     6.9634     1.3632     1.1161 C
35 C35     5.5799     1.2078     1.1170 C
36 C36     0.0448    -3.6462    -0.0034 C
37 C37     0.7385    -4.3452    -1.0048 C
38 C38     0.7619    -5.7361    -1.0148 C
39 C39     0.0912    -6.4498    -0.0178 C
40 C40    -0.6019    -5.7696     0.9860 C
41 C41    -0.6265    -4.3778     0.9889 C
42 H42     7.5464     1.0502     1.9754 H
43 H43     5.0852     0.7770     1.9815 H
44 H44     4.8786     2.5165    -1.9410 H
45 H45     7.3384     2.8093    -1.9423 H
46 H46    -4.9659     2.3701     1.9623 H
47 H47    -7.4333     2.5976     1.9634 H
48 H48    -7.5927     0.8360    -1.9557 H
49 H49    -5.1253     0.6287    -1.9616 H
50 H50    -1.1600    -3.8481     1.7712 H
51 H51    -1.1197    -6.3242     1.7609 H
52 H52     1.2483    -3.7896    -1.7851 H
53 H53     1.2889    -6.2661    -1.8012 H
54 Cu54    -0.0253     1.1194     0.0106 Cu
55 C55    -9.1560     1.9190    -0.0257 C
56 C56     0.1713    -7.9489     0.0017 C
57 C57     9.0927     2.0638    -0.0166 C
58 F58    -9.7778     0.9284    -0.7051 F
59 F59    -9.6900     1.9530     1.2157 F
60 F60    -9.5053     3.0803    -0.6318 F
61 F61     9.6743     0.9930    -0.6108 F
62 F62     9.4965     3.1544    -0.7073 F
63 F63     9.6218     2.1533     1.2241 F
64 F64     1.2919    -8.3831     0.6290 F
65 F65    -0.8766    -8.5086     0.6461 F
66 F66     0.2024    -8.4696    -1.2462 F
67 H67    -2.6632    -3.1996    -0.3731 H
68 H68    -4.5220    -1.2720    -0.3380 H
69 H69     2.7363    -3.1234     0.3755 H
70 H70     4.5383    -1.1420     0.3485 H
71 H71     3.8967     4.4053    -0.2041 H
72 H72     1.6086     5.8190    -0.2167 H
73 H73    -1.7935     5.7700     0.2415 H
74 H74    -4.0399     4.2913     0.2250 H
@<TRIPOS>BOND
1 1 7 Ar
2 1 9 Ar
3 1 30 1
4 2 12 Ar
5 2 14 Ar
6 2 36 1
7 3 17 Ar
8 3 19 Ar
9 3 24 1
10 4 5 Ar
11 4 8 Ar
12 4 22 Ar
13 5 6 2
14 5 72 1
15 6 7 Ar
16 6 71 1
17 7 8 Ar
18 8 54 1
19 9 10 Ar
20 9 13 1
21 10 11 2
22 10 70 1
23 11 12 Ar
24 11 69 1
25 12 13 1
26 13 54 1
27 14 15 Ar
28 14 18 1
29 15 16 2
30 15 67 1
31 16 17 Ar
32 16 68 1
33 17 18 1
34 18 54 1
35 19 20 Ar
36 19 23 Ar
37 20 21 2
38 20 74 1
39 21 22 Ar
40 21 73 1
41 22 23 Ar
42 23 54 1
43 24 25 Ar
44 24 29 Ar
45 25 26 Ar
46 25 46 1
47 26 27 Ar
48 26 47 1
49 27 28 Ar
50 27 55 1
51 28 29 Ar
52 28 48 1
53 29 49 1
54 30 31 Ar
55 30 35 Ar
56 31 32 Ar
57 31 44 1
58 32 33 Ar
59 32 45 1
60 33 34 Ar
61 33 57 1
62 34 35 Ar
63 34 42 1
64 35 43 1
65 36 37 Ar
66 36 41 Ar
67 37 38 Ar
68 37 52 1
69 38 39 Ar
70 38 53 1
71 39 40 Ar
72 39 56 1
73 40 41 Ar
74 40 51 1
75 41 50 1
76 55 58 1
77 55 59 1
78 55 60 1
79 56 64 1
80 56 65 1
81 56 66 1
82 57 61 1
83 57 62 1
84 57 63 1
