# 1Cu_H_H
# Created by GaussView 6.0.16
#

#
#

@<TRIPOS>MOLECULE
Molecule Name
65 75
SMALL
NO_CHARGES


@<TRIPOS>ATOM
1 C1    -3.3629     0.9694    -0.0224 C
2 C2     0.0000    -2.6191    -0.0000 C
3 C3     3.3629     0.9694     0.0224 C
4 C4    -0.7100     3.3473    -0.0160 C
5 C5    -1.7926     4.2646     0.1280 C
6 C6    -2.9607     3.5211     0.1022 C
7 C7    -2.5948     2.1380    -0.0392 C
8 N8    -1.2265     2.0927    -0.1830 N
9 C9    -2.7719    -0.3160    -0.0372 C
10 C10    -3.4610    -1.5592    -0.2439 C
11 C11    -2.5268    -2.5616    -0.2469 C
12 C12    -1.2432    -1.9580    -0.0208 C
13 N13    -1.4234    -0.5948     0.1443 N
14 C14     1.2432    -1.9580     0.0208 C
15 C15     2.5268    -2.5616     0.2469 C
16 C16     3.4610    -1.5592     0.2439 C
17 C17     2.7719    -0.3160     0.0372 C
18 N18     1.4234    -0.5948    -0.1443 N
19 C19     2.5948     2.1380     0.0391 C
20 C20     2.9607     3.5211    -0.1023 C
21 C21     1.7926     4.2646    -0.1280 C
22 C22     0.7100     3.3473     0.0160 C
23 N23     1.2265     2.0927     0.1830 N
24 C24     4.8474     1.0946     0.0131 C
25 C25     5.5019     1.6447    -1.0990 C
26 C26     6.8897     1.7870    -1.1060 C
27 C27     7.6423     1.3818    -0.0024 C
28 C28     6.9994     0.8346     1.1098 C
29 C29     5.6117     0.6938     1.1193 C
30 C30    -4.8474     1.0946    -0.0131 C
31 C31    -5.5019     1.6447     1.0990 C
32 C32    -6.8897     1.7870     1.1060 C
33 C33    -7.6423     1.3818     0.0024 C
34 C34    -6.9994     0.8346    -1.1098 C
35 C35    -5.6117     0.6938    -1.1192 C
36 C36     0.0000    -4.1061    -0.0000 C
37 C37    -0.7052    -4.8222     0.9811 C
38 C38    -0.7030    -6.2163     0.9819 C
39 C39     0.0000    -6.9177     0.0000 C
40 C40     0.7030    -6.2163    -0.9819 C
41 C41     0.7052    -4.8222    -0.9811 C
42 H42    -7.5773     0.5239    -1.9758 H
43 H43    -5.1112     0.2819    -1.9905 H
44 H44    -4.9172     1.9521     1.9607 H
45 H45    -7.3822     2.2117     1.9764 H
46 H46     4.9172     1.9521    -1.9607 H
47 H47     7.3822     2.2117    -1.9763 H
48 H48     7.5773     0.5239     1.9758 H
49 H49     5.1112     0.2819     1.9905 H
50 H50     1.2437    -4.2768    -1.7500 H
51 H51     1.2466    -6.7547    -1.7532 H
52 H52    -1.2437    -4.2768     1.7500 H
53 H53    -1.2465    -6.7547     1.7532 H
54 Cu54    -0.0000     0.6621    -0.0000 Cu
55 H55     0.0000    -8.0041     0.0000 H
56 H56    -8.7230     1.4925     0.0081 H
57 H57     8.7230     1.4926    -0.0081 H
58 H58     2.6939    -3.6151     0.4172 H
59 H59     4.5271    -1.6574     0.3874 H
60 H60    -2.6939    -3.6151    -0.4172 H
61 H61    -4.5271    -1.6574    -0.3874 H
62 H62     1.7025     5.3372    -0.2395 H
63 H63     3.9706     3.8880    -0.2210 H
64 H64    -1.7025     5.3372     0.2395 H
65 H65    -3.9706     3.8880     0.2210 H
@<TRIPOS>BOND
1 1 7 Ar
2 1 9 Ar
3 1 30 1
4 2 12 Ar
5 2 14 Ar
6 2 36 1
7 3 17 Ar
8 3 19 Ar
9 3 24 1
10 4 5 Ar
11 4 8 Ar
12 4 22 Ar
13 5 6 2
14 5 64 1
15 6 7 Ar
16 6 65 1
17 7 8 Ar
18 8 54 1
19 9 10 Ar
20 9 13 1
21 10 11 2
22 10 61 1
23 11 12 Ar
24 11 60 1
25 12 13 1
26 13 54 1
27 14 15 Ar
28 14 18 1
29 15 16 2
30 15 58 1
31 16 17 Ar
32 16 59 1
33 17 18 1
34 18 54 1
35 19 20 Ar
36 19 23 Ar
37 20 21 2
38 20 63 1
39 21 22 Ar
40 21 62 1
41 22 23 Ar
42 23 54 1
43 24 25 Ar
44 24 29 Ar
45 25 26 Ar
46 25 46 1
47 26 27 Ar
48 26 47 1
49 27 28 Ar
50 27 57 1
51 28 29 Ar
52 28 48 1
53 29 49 1
54 30 31 Ar
55 30 35 Ar
56 31 32 Ar
57 31 44 1
58 32 33 Ar
59 32 45 1
60 33 34 Ar
61 33 56 1
62 34 35 Ar
63 34 42 1
64 35 43 1
65 36 37 Ar
66 36 41 Ar
67 37 38 Ar
68 37 52 1
69 38 39 Ar
70 38 53 1
71 39 40 Ar
72 39 55 1
73 40 41 Ar
74 40 51 1
75 41 50 1
