# 149b_C8H17
# Created by GaussView 6.0.16
#

#
#

@<TRIPOS>MOLECULE
Molecule Name
145 152
SMALL
NO_CHARGES


@<TRIPOS>ATOM
1 C1    -3.3916    -1.3492     0.4896 C
2 C2     0.2744     1.9356     0.2753 C
3 C3     3.4428    -1.7978     0.5404 C
4 C4    -0.8191    -3.8670     0.8182 C
5 C5    -1.8831    -4.7110     0.4419 C
6 C6    -3.0333    -3.9262     0.3037 C
7 C7    -2.6934    -2.5790     0.5816 C
8 N8    -1.3517    -2.5936     0.9103 N
9 C9    -2.7320    -0.1112     0.4594 C
10 C10    -3.2908     1.2067     0.5377 C
11 C11    -2.2696     2.1241     0.4923 C
12 C12    -1.0261     1.4205     0.3707 C
13 N13    -1.3511     0.0784     0.3793 N
14 C14     1.4761     1.1748     0.2642 C
15 C15     2.8094     1.7494     0.1471 C
16 C16     3.6939     0.7179     0.2277 C
17 C17     2.9140    -0.4964     0.3857 C
18 N18     1.5662    -0.1786     0.3942 N
19 C19     2.6158    -2.9263     0.7553 C
20 C20     2.8328    -4.3349     0.8027 C
21 C21     1.5893    -4.9589     0.8717 C
22 C22     0.5952    -3.9440     0.8740 C
23 N23     1.2645    -2.7522     0.8423 N
24 C24     4.9046    -2.0188     0.4582 C
25 C25     5.6252    -2.6124     1.5034 C
26 C26     6.9872    -2.8338     1.4242 C
27 C27     7.0291    -1.8982    -0.7568 C
28 C28     5.6597    -1.6804    -0.6693 C
29 C29    -4.8746    -1.3798     0.4152 C
30 C30    -5.5574    -1.9399    -0.6660 C
31 C31    -6.9433    -2.0093    -0.7345 C
32 C32    -7.0668    -0.9427     1.3806 C
33 C33    -5.6867    -0.8840     1.4414 C
34 C34     0.3863     3.4176     0.2076 C
35 C35    -0.1491     4.1622    -0.8464 C
36 C36    -0.0621     5.5472    -0.9177 C
37 C37     1.1160     5.5457     1.1409 C
38 C38     1.0166     4.1681     1.2076 C
39 H39    -1.7949    -5.7654     0.2178 H
40 H40    -3.9985    -4.2675    -0.0405 H
41 H41    -0.9528    -1.8863     1.5142 H
42 H42    -4.3439     1.4189     0.6497 H
43 H43    -2.3623     3.1980     0.5635 H
44 H44    -0.6895    -0.6021     0.0310 H
45 H45     3.0368     2.7978     0.0146 H
46 H46     4.7729     0.7770     0.1992 H
47 H47     3.7970    -4.8219     0.7681 H
48 H48     1.3984    -6.0223     0.9199 H
49 H49     0.9031    -1.8043     0.6810 H
50 C50     7.7511    -2.4835     0.2954 C
51 C51     0.5766     6.2988     0.0811 C
52 F52     7.6366    -3.3834     2.4790 F
53 F53     4.9963    -2.9671     2.6384 F
54 F54     5.0570    -1.1364    -1.7411 F
55 F55     7.6540    -1.5505    -1.9054 F
56 F56    -0.7798     3.5344    -1.8556 F
57 F57    -0.6231     6.1612    -1.9867 F
58 F58     1.5400     3.5515     2.2816 F
59 F59     1.7243     6.2192     2.1477 F
60 F60    -5.1256    -0.3313     2.5328 F
61 F61    -7.7999    -0.4618     2.4137 F
62 F62    -4.8636    -2.4474    -1.7024 F
63 F63    -7.4926    -2.5801    -1.8325 F
64 C64    -7.7586    -1.5181     0.2977 C
65 N65    -9.1360    -1.5073     0.3006 N
66 H66    -9.5107    -1.2550     1.2065 H
67 N67     0.7557     7.6665     0.0690 N
68 H68     1.1079     8.0049     0.9561 H
69 N69     9.0968    -2.7716     0.2777 N
70 H70     9.4409    -3.0353     1.1936 H
71 C71    -9.9643    -2.4652    -0.4381 C
72 H72   -11.0019    -2.1727    -0.2467 H
73 H73    -9.7886    -2.3339    -1.5079 H
74 C74    -9.7493    -3.9302    -0.0440 C
75 H75    -8.7019    -4.1998    -0.2271 H
76 H76    -9.9217    -4.0430     1.0353 H
77 C77   -10.6598    -4.8835    -0.8228 C
78 H78   -10.5045    -4.7318    -1.9007 H
79 H79   -11.7120    -4.6313    -0.6253 H
80 C80   -10.4162    -6.3566    -0.4808 C
81 H81    -9.3641    -6.6038    -0.6839 H
82 H82   -10.5628    -6.5086     0.5984 H
83 C83   -11.3205    -7.3196    -1.2558 C
84 H84   -12.3731    -7.0791    -1.0457 H
85 H85   -11.1804    -7.1599    -2.3349 H
86 C86   -11.0614    -8.7924    -0.9248 C
87 H87   -11.1998    -8.9526     0.1547 H
88 H88   -10.0087    -9.0321    -1.1356 H
89 C89   -11.9628    -9.7602    -1.6978 C
90 H90   -13.0150    -9.5219    -1.4870 H
91 H91   -11.8236    -9.6009    -2.7764 H
92 C92   -11.6938   -11.2277    -1.3598 C
93 H93   -11.8612   -11.4260    -0.2936 H
94 H94   -12.3483   -11.8981    -1.9293 H
95 H95   -10.6564   -11.5032    -1.5879 H
96 C96    -0.1652     8.5986    -0.5892 C
97 H97     0.2699     9.5947    -0.4566 H
98 H98    -0.1698     8.3930    -1.6613 H
99 C99    -1.5940     8.5705    -0.0372 C
100 H100    -2.0004     7.5569    -0.1461 H
101 H101    -1.5665     8.7860     1.0402 H
102 C102    -2.5174     9.5650    -0.7458 C
103 H103    -2.5498     9.3268    -1.8186 H
104 H104    -2.0960    10.5780    -0.6684 H
105 C105    -3.9416     9.5650    -0.1816 C
106 H106    -4.3560     8.5484    -0.2449 H
107 H107    -3.9064     9.8140     0.8891 H
108 C108    -4.8813    10.5399    -0.8972 C
109 H109    -4.4592    11.5545    -0.8479 H
110 H110    -4.9286    10.2807    -1.9650 H
111 C111    -6.2980    10.5535    -0.3151 C
112 H112    -6.7192     9.5382    -0.3580 H
113 H113    -6.2496    10.8179     0.7517 H
114 C114    -7.2438    11.5226    -1.0313 C
115 H115    -6.8182    12.5355    -0.9960 H
116 H116    -7.3021    11.2524    -2.0952 H
117 C117    -8.6505    11.5394    -0.4305 C
118 H118    -9.3054    12.2428    -0.9582 H
119 H119    -9.1166    10.5474    -0.4840 H
120 H120    -8.6267    11.8359     0.6257 H
121 C121    10.0761    -2.0274    -0.5213 C
122 H122     9.9543    -0.9420    -0.3854 H
123 H123     9.9113    -2.2417    -1.5801 H
124 C124    11.4858    -2.4492    -0.1170 C
125 H125    11.6275    -2.2517     0.9559 H
126 H126    11.5855    -3.5343    -0.2540 H
127 C127    12.5704    -1.7200    -0.9144 C
128 H128    12.4532    -0.6351    -0.7815 H
129 H129    12.4277    -1.9158    -1.9864 H
130 C130    13.9890    -2.1300    -0.5072 C
131 H131    14.1252    -1.9436     0.5680 H
132 H132    14.1073    -3.2142    -0.6468 H
133 C133    15.0817    -1.3953    -1.2897 C
134 H134    14.9617    -0.3111    -1.1495 H
135 H135    14.9460    -1.5807    -2.3651 H
136 C136    16.5001    -1.8040    -0.8807 C
137 H137    16.6340    -1.6237     0.1961 H
138 H138    16.6224    -2.8876    -1.0253 H
139 C139    17.5962    -1.0650    -1.6550 C
140 H140    17.4753     0.0176    -1.5091 H
141 H141    17.4632    -1.2447    -2.7311 H
142 C142    19.0081    -1.4816    -1.2388 C
143 H143    19.7722    -0.9371    -1.8061 H
144 H144    19.1817    -1.2841    -0.1734 H
145 H145    19.1708    -2.5536    -1.4068 H
@<TRIPOS>BOND
1 1 7 Ar
2 1 9 Ar
3 1 29 1
4 2 12 Ar
5 2 14 Ar
6 2 34 1
7 3 17 Ar
8 3 19 Ar
9 3 24 1
10 4 5 Ar
11 4 8 1
12 4 22 Ar
13 5 6 Ar
14 5 39 1
15 6 7 Ar
16 6 40 1
17 7 8 Ar
18 8 41 1
19 9 10 Ar
20 9 13 1
21 10 11 2
22 10 42 1
23 11 12 Ar
24 11 43 1
25 12 13 Ar
26 13 44 1
27 14 15 1
28 14 18 Ar
29 15 16 2
30 15 45 1
31 16 17 1
32 16 46 1
33 17 18 1
34 19 20 Ar
35 19 23 Ar
36 20 21 Ar
37 20 47 1
38 21 22 Ar
39 21 48 1
40 22 23 Ar
41 23 49 1
42 24 25 Ar
43 24 28 Ar
44 25 26 2
45 25 53 1
46 26 50 Ar
47 26 52 1
48 27 28 Ar
49 27 50 Ar
50 27 55 1
51 28 54 1
52 29 30 Ar
53 29 33 Ar
54 30 31 Ar
55 30 62 1
56 31 63 1
57 31 64 Ar
58 32 33 2
59 32 61 1
60 32 64 Ar
61 33 60 1
62 34 35 Ar
63 34 38 Ar
64 35 36 Ar
65 35 56 1
66 36 51 Ar
67 36 57 1
68 37 38 2
69 37 51 Ar
70 37 59 1
71 38 58 1
72 50 69 Ar
73 51 67 Ar
74 64 65 Ar
75 65 66 1
76 65 71 1
77 67 68 1
78 67 96 1
79 69 70 1
80 69 121 1
81 71 72 1
82 71 73 1
83 71 74 1
84 74 75 1
85 74 76 1
86 74 77 1
87 77 78 1
88 77 79 1
89 77 80 1
90 80 81 1
91 80 82 1
92 80 83 1
93 83 84 1
94 83 85 1
95 83 86 1
96 86 87 1
97 86 88 1
98 86 89 1
99 89 90 1
100 89 91 1
101 89 92 1
102 92 93 1
103 92 94 1
104 92 95 1
105 96 97 1
106 96 98 1
107 96 99 1
108 99 100 1
109 99 101 1
110 99 102 1
111 102 103 1
112 102 104 1
113 102 105 1
114 105 106 1
115 105 107 1
116 105 108 1
117 108 109 1
118 108 110 1
119 108 111 1
120 111 112 1
121 111 113 1
122 111 114 1
123 114 115 1
124 114 116 1
125 114 117 1
126 117 118 1
127 117 119 1
128 117 120 1
129 121 122 1
130 121 123 1
131 121 124 1
132 124 125 1
133 124 126 1
134 124 127 1
135 127 128 1
136 127 129 1
137 127 130 1
138 130 131 1
139 130 132 1
140 130 133 1
141 133 134 1
142 133 135 1
143 133 136 1
144 136 137 1
145 136 138 1
146 136 139 1
147 139 140 1
148 139 141 1
149 139 142 1
150 142 143 1
151 142 144 1
152 142 145 1
