# 4_H3_OPT
# Created by GaussView 6.0.16
#

#
#

@<TRIPOS>MOLECULE
Molecule Name
76 83
SMALL
NO_CHARGES


@<TRIPOS>ATOM
1 C1    -3.4182    -1.1630    -0.1122 C
2 C2    -0.0204     2.3726     0.0186 C
3 C3     3.4510    -1.1540    -0.0216 C
4 C4    -0.7062    -3.4363    -0.5577 C
5 C5    -1.7361    -4.4103    -0.4211 C
6 C6    -2.9415    -3.7351    -0.3252 C
7 C7    -2.6681    -2.3284    -0.4000 C
8 N8    -1.3219    -2.2166    -0.6034 N
9 C9    -2.8079     0.1158     0.0318 C
10 C10    -3.5109     1.3768     0.1871 C
11 C11    -2.5649     2.3560     0.2056 C
12 C12    -1.2737     1.7003     0.0484 C
13 N13    -1.4519     0.3496    -0.0412 N
14 C14     1.2593     1.7712    -0.0076 C
15 C15     2.5216     2.3776    -0.2989 C
16 C16     3.4889     1.3974    -0.3005 C
17 C17     2.8696     0.1435    -0.0146 C
18 N18     1.5176     0.4244     0.1487 N
19 C19     2.6545    -2.3217    -0.1660 C
20 C20     2.8469    -3.6788     0.2193 C
21 C21     1.6546    -4.3670     0.0225 C
22 C22     0.7012    -3.4487    -0.4774 C
23 N23     1.3541    -2.2403    -0.6072 N
24 H24    -1.5850    -5.4800    -0.3865 H
25 H25    -4.5813     1.5127     0.2456 H
26 H26    -2.7372     3.4146     0.3356 H
27 H27     2.6699     3.4195    -0.5414 H
28 H28     4.5314     1.5281    -0.5514 H
29 H29     3.7413    -4.0767     0.6757 H
30 H30     1.4517    -5.3951     0.2884 H
31 C31    -0.0365     3.8506    -0.0521 C
32 C32    -0.8045     4.5271    -1.0206 C
33 C33     0.7274     4.6457     0.8213 C
34 C34    -0.7915     5.9028    -1.0875 C
35 H35    -1.3897     3.9753    -1.7450 H
36 C36     0.7020     6.0229     0.7199 C
37 H37     1.3289     4.1936     1.6001 H
38 H38    -1.3514     6.4600    -1.8288 H
39 H39     1.2612     6.6671     1.3868 H
40 C40     4.8991    -1.3042     0.1125 C
41 C41     5.5922    -2.3276    -0.5740 C
42 C42     5.6774    -0.4579     0.9307 C
43 C43     6.9544    -2.4643    -0.4399 C
44 H44     5.0704    -2.9987    -1.2446 H
45 C45     7.0402    -0.6381     1.0322 C
46 H46     5.2171     0.3255     1.5193 H
47 H47     7.5200    -3.2264    -0.9624 H
48 H48     7.6639    -0.0170     1.6630 H
49 C49    -4.8689    -1.3132     0.0861 C
50 C50    -5.6523    -2.0626    -0.8144 C
51 C51    -5.5333    -0.7466     1.1904 C
52 C52    -7.0069    -2.2088    -0.6076 C
53 H53    -5.2058    -2.5086    -1.6947 H
54 C54    -6.8909    -0.9262     1.3559 C
55 H55    -4.9867    -0.1883     1.9398 H
56 H56    -7.6489    -2.7573    -1.2860 H
57 H57    -7.4348    -0.5213     2.1998 H
58 C58    -0.0819     8.1108    -0.3293 C
59 C59     9.1279    -1.8219     0.4784 C
60 C60    -9.0602    -1.8587     0.6755 C
61 H61     0.2009     8.3996    -1.3430 H
62 H62    -1.0918     8.4617    -0.1079 H
63 H63     0.6213     8.5373     0.3844 H
64 H64     9.5646    -1.8867    -0.5191 H
65 H65     9.5555    -0.9737     1.0104 H
66 H66     9.3215    -2.7435     1.0324 H
67 H67    -9.4221    -1.1377     1.4075 H
68 H68    -9.5814    -1.7137    -0.2716 H
69 H69    -9.2229    -2.8749     1.0417 H
70 H70    -0.9079    -1.2818    -0.4943 H
71 H71     1.0221    -1.4789    -1.1845 H
72 H72     0.8206    -0.2083     0.5202 H
73 H73    -3.9113    -4.1870    -0.1755 H
74 N74    -7.6126    -1.6449     0.4650 N
75 N75     7.6684    -1.6266     0.3527 N
76 N76    -0.0486     6.6363    -0.2234 N
@<TRIPOS>BOND
1 1 7 Ar
2 1 9 Ar
3 1 49 1
4 2 12 Ar
5 2 14 Ar
6 2 31 1
7 3 17 Ar
8 3 19 Ar
9 3 40 1
10 4 5 Ar
11 4 8 Ar
12 4 22 Ar
13 5 6 2
14 5 24 1
15 6 7 Ar
16 6 73 1
17 7 8 Ar
18 8 70 1
19 9 10 1
20 9 13 Ar
21 10 11 2
22 10 25 1
23 11 12 1
24 11 26 1
25 12 13 Ar
26 14 15 Ar
27 14 18 Ar
28 15 16 2
29 15 27 1
30 16 17 Ar
31 16 28 1
32 17 18 1
33 18 72 1
34 19 20 Ar
35 19 23 Ar
36 20 21 Ar
37 20 29 1
38 21 22 Ar
39 21 30 1
40 22 23 Ar
41 23 71 1
42 31 32 Ar
43 31 33 Ar
44 32 34 2
45 32 35 1
46 33 36 2
47 33 37 1
48 34 38 1
49 34 76 Ar
50 36 39 1
51 36 76 Ar
52 40 41 Ar
53 40 42 Ar
54 41 43 2
55 41 44 1
56 42 45 2
57 42 46 1
58 43 47 1
59 43 75 Ar
60 45 48 1
61 45 75 Ar
62 49 50 Ar
63 49 51 Ar
64 50 52 2
65 50 53 1
66 51 54 2
67 51 55 1
68 52 56 1
69 52 74 Ar
70 54 57 1
71 54 74 Ar
72 58 61 1
73 58 62 1
74 58 63 1
75 58 76 1
76 59 64 1
77 59 65 1
78 59 66 1
79 59 75 1
80 60 67 1
81 60 68 1
82 60 69 1
83 60 74 1
