# 149d_C3
# Created by GaussView 6.0.16
#

#
#

@<TRIPOS>MOLECULE
Molecule Name
88 95
SMALL
NO_CHARGES


@<TRIPOS>ATOM
1 C1     3.4954    -1.4999    -0.2383 C
2 C2    -0.0134     1.9452     0.0406 C
3 C3    -3.3442    -1.6451    -0.0185 C
4 C4     0.8069    -3.9061    -0.3838 C
5 C5     1.8445    -4.7854    -0.0116 C
6 C6     3.0330    -4.0530     0.0523 C
7 C7     2.7456    -2.7015    -0.2681 C
8 N8     1.3931    -2.6633    -0.5483 N
9 C9     2.8929    -0.2311    -0.2122 C
10 C10     3.5069     1.0596    -0.3180 C
11 C11     2.5299     2.0223    -0.2414 C
12 C12     1.2624     1.3741    -0.0773 C
13 N13     1.5270     0.0199    -0.0860 N
14 C14    -1.2489     1.2464     0.0886 C
15 C15    -2.5527     1.8842     0.2158 C
16 C16    -3.4823     0.8908     0.1977 C
17 C17    -2.7586    -0.3614     0.0671 C
18 N18    -1.4011    -0.1052     0.0087 N
19 C19    -2.5771    -2.8160    -0.2188 C
20 C20    -2.8533    -4.2164    -0.1876 C
21 C21    -1.6419    -4.8938    -0.2797 C
22 C22    -0.6083    -3.9220    -0.3781 C
23 N23    -1.2265    -2.7024    -0.3759 N
24 C24    -4.8102    -1.7983     0.1217 C
25 C25    -5.5815    -2.4086    -0.8730 C
26 C26    -6.9554    -2.5886    -0.7593 C
27 C27    -6.8757    -1.5372     1.3788 C
28 C28    -5.5059    -1.3741     1.2604 C
29 C29     4.9782    -1.5851    -0.2213 C
30 C30     5.6779    -2.1585     0.8427 C
31 C31     7.0633    -2.2766     0.8590 C
32 C32     7.1406    -1.2079    -1.2700 C
33 C33     5.7592    -1.1142    -1.2823 C
34 C34    -0.0563     3.4314     0.1022 C
35 C35     0.5117     4.1439     1.1636 C
36 C36     0.4701     5.5271     1.2190 C
37 C37    -0.7187     5.5884    -0.8466 C
38 C38    -0.6597     4.2000    -0.8964 C
39 H39     1.7162    -5.8246     0.2587 H
40 H40     3.9913    -4.4289     0.3788 H
41 H41     1.0108    -1.9695    -1.1781 H
42 H42     4.5639     1.2280    -0.4617 H
43 H43     2.6708     3.0906    -0.3203 H
44 H44     0.8459    -0.6319     0.2786 H
45 H45    -2.7347     2.9452     0.3132 H
46 H46    -4.5566     1.0006     0.2497 H
47 H47    -3.8333    -4.6613    -0.0865 H
48 H48    -1.4960    -5.9652    -0.2845 H
49 H49    -0.8199    -1.7655    -0.2676 H
50 C50    -7.6428    -2.1519     0.3789 C
51 C51    -0.1500     6.2924     0.2212 C
52 F52    -7.6041    -3.1792    -1.7783 F
53 F53    -5.0000    -2.8403    -2.0008 F
54 F54    -4.8532    -0.8040     2.2822 F
55 F55    -7.5054    -1.1164     2.4946 F
56 F56     1.1156     3.4928     2.1672 F
57 F57     1.0270     6.1734     2.2631 F
58 F58    -1.2118     3.6004    -1.9596 F
59 F59    -1.3208     6.2354    -1.8621 F
60 F60     5.1769    -0.5482    -2.3494 F
61 F61     7.8519    -0.7398    -2.3148 F
62 F62     5.0100    -2.6319     1.9054 F
63 F63     7.6374    -2.8509     1.9323 F
64 C64     7.8367    -1.7970    -0.2043 C
65 N65     9.2272    -1.8525    -0.2978 N
66 H66     9.5989    -1.4590    -1.1583 H
67 N67    -0.1384     7.6793     0.3767 N
68 H68     0.3510     7.9956     1.2098 H
69 N69    -9.0139    -2.2741     0.6080 N
70 H70    -9.3187    -1.8871     1.4972 H
71 C71    10.1329    -2.3494     0.5689 C
72 H72     9.7396    -2.7755     1.4828 H
73 C73    11.4977    -2.3810     0.3120 C
74 H74    11.8327    -1.8965    -0.6138 H
75 C75    12.3918    -3.1310     1.0871 C
76 H76    11.8350    -3.4737     1.9898 H
77 C77    -0.6817     8.6407    -0.3957 C
78 H78    -1.2167     8.3055    -1.2750 H
79 C79    -0.6180     9.9939    -0.0879 C
80 H80    -0.0325    10.2630     0.8001 H
81 C81    -1.3567    10.9669    -0.7747 C
82 H82    -1.8245    10.4609    -1.6512 H
83 C83    -9.9702    -2.8222    -0.1622 C
84 H84    -9.6723    -3.2391    -1.1149 H
85 C85   -11.3102    -2.8794     0.2007 C
86 H86   -11.5711    -2.4435     1.1781 H
87 C87   -12.1652    -3.4882    -0.7269 C
88 H88   -13.1945    -3.4606    -0.3070 H
@<TRIPOS>BOND
1 1 7 Ar
2 1 9 Ar
3 1 29 1
4 2 12 Ar
5 2 14 Ar
6 2 34 1
7 3 17 Ar
8 3 19 Ar
9 3 24 1
10 4 5 Ar
11 4 8 1
12 4 22 Ar
13 5 6 Ar
14 5 39 1
15 6 7 Ar
16 6 40 1
17 7 8 Ar
18 8 41 1
19 9 10 Ar
20 9 13 1
21 10 11 2
22 10 42 1
23 11 12 Ar
24 11 43 1
25 12 13 Ar
26 13 44 1
27 14 15 1
28 14 18 Ar
29 15 16 2
30 15 45 1
31 16 17 1
32 16 46 1
33 17 18 1
34 19 20 Ar
35 19 23 Ar
36 20 21 Ar
37 20 47 1
38 21 22 Ar
39 21 48 1
40 22 23 Ar
41 23 49 1
42 24 25 Ar
43 24 28 Ar
44 25 26 Ar
45 25 53 1
46 26 50 Ar
47 26 52 1
48 27 28 2
49 27 50 Ar
50 27 55 1
51 28 54 1
52 29 30 Ar
53 29 33 Ar
54 30 31 Ar
55 30 62 1
56 31 63 1
57 31 64 Ar
58 32 33 2
59 32 61 1
60 32 64 Ar
61 33 60 1
62 34 35 Ar
63 34 38 Ar
64 35 36 2
65 35 56 1
66 36 51 Ar
67 36 57 1
68 37 38 Ar
69 37 51 Ar
70 37 59 1
71 38 58 1
72 50 69 1
73 51 67 1
74 64 65 1
75 65 66 1
76 65 71 Ar
77 67 68 1
78 67 77 Ar
79 69 70 1
80 69 83 Ar
81 71 72 1
82 71 73 Ar
83 73 74 1
84 73 75 Ar
85 75 76 1
86 77 78 1
87 77 79 Ar
88 79 80 1
89 79 81 Ar
90 81 82 1
91 83 84 1
92 83 85 Ar
93 85 86 1
94 85 87 Ar
95 87 88 1
