# Molecule Name
# Created by GaussView 6.0.16
#

#
#

@<TRIPOS>MOLECULE
Molecule Name
82 90
SMALL
NO_CHARGES


@<TRIPOS>ATOM
1 C1     3.5663    -2.0080    -0.0899 C
2 C2    -0.0814     1.3061    -0.0874 C
3 C3    -3.2681    -2.4130    -0.0065 C
4 C4     0.9743    -4.5222    -0.2114 C
5 C5     2.0306    -5.3359     0.2506 C
6 C6     3.1842    -4.5500     0.3195 C
7 C7     2.8564    -3.2348    -0.0951 C
8 N8     1.5204    -3.2717    -0.4338 N
9 C9     2.9138    -0.7632    -0.1474 C
10 C10     3.4702     0.5337    -0.3900 C
11 C11     2.4520     1.4567    -0.3954 C
12 C12     1.2154     0.7744    -0.1545 C
13 N13     1.5407    -0.5615    -0.0301 N
14 C14    -1.2866     0.5596    -0.0089 C
15 C15    -2.6153     1.1512     0.0770 C
16 C16    -3.5060     0.1226     0.0962 C
17 C17    -2.7334    -1.1054     0.0279 C
18 N18    -1.3863    -0.8001    -0.0278 N
19 C19    -2.4534    -3.5599    -0.1471 C
20 C20    -2.6747    -4.9668    -0.0576 C
21 C21    -1.4357    -5.5993    -0.1035 C
22 C22    -0.4400    -4.5930    -0.2316 C
23 N23    -1.1054    -3.3999    -0.2937 N
24 C24    -0.1789     2.7898    -0.1213 C
25 C25     0.3599     3.5947     0.8866 C
26 C26     0.2980     4.9794     0.8531 C
27 C27    -0.9200     4.8636    -1.1811 C
28 C28    -0.8030     3.4817    -1.1628 C
29 H29     1.9306    -6.3621     0.5766 H
30 H30     4.1477    -4.8583     0.7006 H
31 H31     1.1138    -2.6010    -1.0726 H
32 H32     4.5161     0.7239    -0.5842 H
33 H33     2.5386     2.5163    -0.5870 H
34 H34     0.8863    -1.2123     0.3819 H
35 H35    -2.8346     2.2083     0.1248 H
36 H36    -4.5844     0.1909     0.1345 H
37 H37    -3.6381    -5.4453     0.0502 H
38 H38    -1.2480    -6.6633    -0.0584 H
39 H39    -0.7388    -2.4423    -0.2246 H
40 C40    -0.3622     5.6843    -0.1766 C
41 F41     1.0069     3.0263     1.9207 F
42 F42     0.9236     5.6593     1.8409 F
43 F43    -1.3580     2.7973    -2.1800 F
44 F44    -1.6148     5.4197    -2.1997 F
45 N45    -0.4489     7.0560    -0.1979 N
46 C46    -0.5539     7.8335     1.0475 C
47 C47    -0.4625     7.8005    -1.4673 C
48 C48    -1.3860     9.0910     0.7967 C
49 H49     0.4372     8.1088     1.4333 H
50 C50     0.1257     9.1938    -1.2474 C
51 H51    -1.4794     7.8834    -1.8738 H
52 H52    -1.5297     9.6197     1.7453 H
53 H53     0.1950     9.7094    -2.2114 H
54 H54    -1.0340     7.2099     1.8052 H
55 H55    -2.3801     8.7823     0.4518 H
56 H56     1.1505     9.0813    -0.8735 H
57 H57     0.1342     7.2478    -2.1976 H
58 C58    -0.7197    10.0106    -0.2487 C
59 H59    -1.4936    10.5745    -0.7819 H
60 H60    -0.0802    10.7488     0.2485 H
61 C61    -4.7301    -2.6158     0.1330 C
62 C62    -5.4712    -3.2768    -0.8537 C
63 C63    -5.4361    -2.1842     1.2623 C
64 C64    -6.8398    -3.4919    -0.7344 C
65 C65    -6.8064    -2.3791     1.3979 C
66 C66    -7.5115    -3.0381     0.3960 C
67 C67     5.0396    -2.0496     0.0115 C
68 C68     5.8117    -2.8328    -0.8589 C
69 C69     5.7410    -1.3373     0.9952 C
70 C70     7.1965    -2.9054    -0.7628 C
71 C71     7.1268    -1.3853     1.0994 C
72 C72     7.8588    -2.1752     0.2188 C
73 F73    -8.8277    -3.2350     0.5191 F
74 F74    -7.4474    -1.9522     2.4935 F
75 F75    -4.7948    -1.5687     2.2660 F
76 F76     5.2225    -3.5329    -1.8394 F
77 F77     7.8964    -3.6583    -1.6208 F
78 F78     9.1899    -2.2328     0.3154 F
79 F79     7.7580    -0.6933     2.0560 F
80 F80     5.0802    -0.5902     1.8912 F
81 F81    -4.8664    -3.7190    -1.9665 F
82 F82    -7.5157    -4.1208    -1.7046 F
@<TRIPOS>BOND
1 1 7 Ar
2 1 9 Ar
3 1 67 1
4 2 12 Ar
5 2 14 Ar
6 2 24 1
7 3 17 Ar
8 3 19 Ar
9 3 61 1
10 4 5 Ar
11 4 8 1
12 4 22 Ar
13 5 6 Ar
14 5 29 1
15 6 7 Ar
16 6 30 1
17 7 8 Ar
18 8 31 1
19 9 10 Ar
20 9 13 1
21 10 11 2
22 10 32 1
23 11 12 Ar
24 11 33 1
25 12 13 Ar
26 13 34 1
27 14 15 1
28 14 18 Ar
29 15 16 2
30 15 35 1
31 16 17 1
32 16 36 1
33 17 18 1
34 19 20 Ar
35 19 23 Ar
36 20 21 Ar
37 20 37 1
38 21 22 Ar
39 21 38 1
40 22 23 Ar
41 23 39 1
42 24 25 Ar
43 24 28 Ar
44 25 26 Ar
45 25 41 1
46 26 40 Ar
47 26 42 1
48 27 28 Ar
49 27 40 Ar
50 27 44 1
51 28 43 1
52 40 45 Ar
53 45 46 1
54 45 47 1
55 46 48 1
56 46 49 1
57 46 54 1
58 47 50 1
59 47 51 1
60 47 57 1
61 48 52 1
62 48 55 1
63 48 58 1
64 50 53 1
65 50 56 1
66 50 58 1
67 58 59 1
68 58 60 1
69 61 62 Ar
70 61 63 Ar
71 62 64 Ar
72 62 81 1
73 63 65 Ar
74 63 75 1
75 64 66 Ar
76 64 82 1
77 65 66 Ar
78 65 74 1
79 66 73 1
80 67 68 Ar
81 67 69 Ar
82 68 70 Ar
83 68 76 1
84 69 71 Ar
85 69 80 1
86 70 72 Ar
87 70 77 1
88 71 72 Ar
89 71 79 1
90 72 78 1
