# 160_NH_COOH
# Created by GaussView 6.0.16
#

#
#

@<TRIPOS>MOLECULE
Molecule Name
96 104
SMALL
NO_CHARGES


@<TRIPOS>ATOM
1 C1     4.1152    -2.1433    -0.3311 C
2 C2     2.2503     2.4088    -0.4692 C
3 C3    -2.1711     0.2566    -0.1229 C
4 C4     0.7874    -3.4489    -0.0699 C
5 C5     1.4625    -4.6927    -0.2300 C
6 C6     2.8244    -4.4141    -0.3143 C
7 C7     2.9848    -2.9917    -0.2113 C
8 N8     1.7408    -2.4627    -0.0331 N
9 C9     4.0428    -0.7352    -0.4015 C
10 C10     5.1416     0.1879    -0.5191 C
11 C11     4.6312     1.4604    -0.5574 C
12 C12     3.1977     1.3611    -0.4692 C
13 N13     2.8754     0.0232    -0.3690 N
14 C14     0.8440     2.2561    -0.4153 C
15 C15    -0.1619     3.2754    -0.5393 C
16 C16    -1.3894     2.6658    -0.4404 C
17 C17    -1.1790     1.2569    -0.2473 C
18 N18     0.1993     1.0510    -0.2317 N
19 C19    -1.8858    -1.1284    -0.0445 C
20 C20    -2.7227    -2.2972    -0.0366 C
21 C21    -1.8921    -3.4119    -0.0411 C
22 C22    -0.5480    -2.9347    -0.0358 C
23 N23    -0.5941    -1.5670    -0.0254 N
24 C24    -3.5918     0.6833    -0.0922 C
25 C25    -4.5214     0.2797    -1.0548 C
26 C26    -5.8564     0.6630    -1.0220 C
27 C27    -6.3645     1.4837    -0.0028 C
28 C28    -5.4251     1.8922     0.9618 C
29 C29    -4.0976     1.5062     0.9219 C
30 F30    -4.1311    -0.5007    -2.0778 F
31 F31    -6.6670     0.2209    -2.0114 F
32 F32    -5.8631     2.6691     1.9826 F
33 F33    -3.2884     1.9293     1.9108 F
34 C34     2.7643     3.8033    -0.5042 C
35 C35     2.5643     4.6649     0.5797 C
36 C36     3.0225     5.9776     0.5796 C
37 C37     3.7167     6.4608    -0.5255 C
38 C38     3.9391     5.6296    -1.6188 C
39 C39     3.4588     4.3235    -1.6003 C
40 F40     1.9151     4.2299     1.6737 F
41 F41     2.8154     6.7725     1.6382 F
42 F42     4.1692     7.7189    -0.5360 F
43 F43     4.6016     6.0960    -2.6853 F
44 F44     3.6812     3.5602    -2.6797 F
45 C45     5.4456    -2.7950    -0.4184 C
46 C46     6.2732    -2.6653    -1.5396 C
47 C47     7.5130    -3.2919    -1.6206 C
48 C48     7.9516    -4.0908    -0.5695 C
49 C49     7.1496    -4.2508     0.5559 C
50 C50     5.9196    -3.6054     0.6202 C
51 F51     5.8809    -1.9270    -2.5874 F
52 F52     8.2789    -3.1443    -2.7093 F
53 F53     9.1389    -4.7016    -0.6393 F
54 F54     7.5734    -5.0117     1.5742 F
55 F55     5.1874    -3.7705     1.7335 F
56 Ga56     1.1110    -0.6198     0.1506 Ga
57 H57     0.9965    -5.6669    -0.2994 H
58 H58     6.1854    -0.0887    -0.5667 H
59 H59     5.1935     2.3788    -0.6467 H
60 H60     0.0294     4.3243    -0.7179 H
61 H61    -2.3559     3.1425    -0.5238 H
62 H62     3.6201    -5.1306    -0.4693 H
63 H63    -3.8039    -2.3025    -0.0508 H
64 H64    -2.2014    -4.4489    -0.0537 H
65 N65    -7.6636     1.9413     0.0805 N
66 H66    -7.8365     2.4069     0.9629 H
67 C67    -8.8100     1.1740    -0.4065 C
68 H68    -9.6962     1.7800    -0.1883 H
69 H69    -8.7453     1.0881    -1.4937 H
70 C70    -8.9507    -0.2114     0.2105 C
71 H71    -8.0445    -0.7917    -0.0002 H
72 H72    -9.0111    -0.1365     1.3062 H
73 C73   -10.1285    -0.9405    -0.3453 C
74 H74    -9.9877    -0.8474    -1.4483 H
75 H75   -11.0106    -0.3119    -0.1305 H
76 C76   -10.3607    -2.3869     0.0468 C
77 H77    -9.3683    -2.6420     0.3972 H
78 H78   -10.8298    -2.1862     1.0611 H
79 C79   -11.5587    -3.6109    -1.7699 C
80 H80   -10.5174    -3.2629    -1.6756 H
81 H81   -11.4654    -4.4461    -2.4408 H
82 C82   -11.9275    -2.5634    -0.5080 C
83 O83   -12.0035    -3.0707    -0.1660 O
84 O84   -11.8957    -2.0469    -0.8420 O
85 H85   -11.8625    -2.8701    -2.5342 H
86 N86     1.2999    -0.3947     2.2702 N
87 C87     1.0671     0.7946     2.8551 C
88 C88     1.6866    -1.4397     3.0241 C
89 C89     1.2129     0.9791     4.2246 C
90 H90     0.7654     1.6033     2.1998 H
91 C91     1.8497    -1.3325     4.3996 C
92 H92     1.8677    -2.3675     2.4929 H
93 C93     1.6082    -0.1025     5.0112 C
94 H94     1.0185     1.9537     4.6582 H
95 H95     2.1611    -2.1985     4.9732 H
96 H96     1.7288     0.0120     6.0841 H
@<TRIPOS>BOND
1 1 7 Ar
2 1 9 Ar
3 1 45 1
4 2 12 Ar
5 2 14 Ar
6 2 34 1
7 3 17 Ar
8 3 19 Ar
9 3 24 1
10 4 5 Ar
11 4 8 Ar
12 4 22 Ar
13 5 6 Ar
14 5 57 1
15 6 7 Ar
16 6 62 1
17 7 8 Ar
18 8 56 1
19 9 10 Ar
20 9 13 1
21 10 11 2
22 10 58 1
23 11 12 Ar
24 11 59 1
25 12 13 Ar
26 13 56 1
27 14 15 Ar
28 14 18 Ar
29 15 16 2
30 15 60 1
31 16 17 Ar
32 16 61 1
33 17 18 1
34 18 56 1
35 19 20 Ar
36 19 23 Ar
37 20 21 Ar
38 20 63 1
39 21 22 Ar
40 21 64 1
41 22 23 Ar
42 23 56 1
43 24 25 Ar
44 24 29 Ar
45 25 26 Ar
46 25 30 1
47 26 27 Ar
48 26 31 1
49 27 28 Ar
50 27 65 Ar
51 28 29 2
52 28 32 1
53 29 33 1
54 34 35 Ar
55 34 39 Ar
56 35 36 Ar
57 35 40 1
58 36 37 Ar
59 36 41 1
60 37 38 Ar
61 37 42 1
62 38 39 Ar
63 38 43 1
64 39 44 1
65 45 46 Ar
66 45 50 Ar
67 46 47 Ar
68 46 51 1
69 47 48 Ar
70 47 52 1
71 48 49 Ar
72 48 53 1
73 49 50 Ar
74 49 54 1
75 50 55 1
76 65 66 1
77 65 67 1
78 67 68 1
79 67 69 1
80 67 70 1
81 70 71 1
82 70 72 1
83 70 73 1
84 73 74 1
85 73 75 1
86 73 76 1
87 76 77 1
88 79 80 1
89 79 81 1
90 79 85 1
91 82 83 3
92 82 84 3
93 83 84 Ar
94 86 87 Ar
95 86 88 Ar
96 87 89 Ar
97 87 90 1
98 88 91 Ar
99 88 92 1
100 89 93 Ar
101 89 94 1
102 91 93 Ar
103 91 95 1
104 93 96 1
