# Al_F15_2py
# Created by GaussView 6.0.16
#

#
#

@<TRIPOS>MOLECULE
Molecule Name
85 96
SMALL
NO_CHARGES


@<TRIPOS>ATOM
1 C1     3.3565    -1.1963     0.0544 C
2 C2    -0.0123     2.3641     0.0357 C
3 C3    -3.3427    -1.2321     0.0423 C
4 C4     0.7400    -3.5713     0.1048 C
5 C5     2.6116    -2.3748     0.0961 C
6 N6     1.2466    -2.3268     0.2474 N
7 C7     2.7719     0.1029     0.0718 C
8 C8     3.4707     1.3527    -0.0472 C
9 C9     2.5357     2.3554    -0.0509 C
10 C10     1.2483     1.7335     0.0675 C
11 N11     1.4180     0.3628     0.1544 N
12 C12    -1.2663     1.7210     0.0311 C
13 C13    -2.5583     2.3228    -0.1354 C
14 C14    -3.4787     1.3074    -0.1432 C
15 C15    -2.7684     0.0703     0.0321 C
16 N16    -1.4197     0.3491     0.1328 N
17 C17    -2.5872    -2.4052     0.0848 C
18 C18    -0.6990    -3.5791     0.0985 C
19 N19    -1.2200    -2.3368     0.2194 N
20 C20    -4.8214    -1.3392    -0.0603 C
21 C21    -5.4455    -1.9474    -1.1537 C
22 C22    -6.8293    -2.0606    -1.2402 C
23 C23    -7.0357    -0.9352     0.8795 C
24 C24    -5.6503    -0.8364     0.9485 C
25 C25     4.8304    -1.3108    -0.0879 C
26 C26     5.6009    -1.9312     0.9014 C
27 C27     6.9803    -2.0652     0.7809 C
28 C28     6.8820    -0.9580    -1.3571 C
29 C29     5.5035    -0.8381    -1.2194 C
30 C30    -0.0093     3.8518    -0.0221 C
31 C31     0.4082     4.6058     1.0774 C
32 C32     0.4264     5.9963     1.0475 C
33 C33    -0.4018     5.9378    -1.2166 C
34 C34    -0.4095     4.5482    -1.1637 C
35 H35     4.5422     1.4665    -0.1239 H
36 H36     2.7174     3.4155    -0.1555 H
37 H37    -2.7529     3.3788    -0.2526 H
38 H38    -4.5468     1.4004    -0.2773 H
39 C39    -2.9403    -3.7928    -0.0863 C
40 H40    -3.9402    -4.1799    -0.2214 H
41 C41    -1.7657    -4.5188    -0.0939 C
42 H42    -1.6591    -5.5874    -0.2231 H
43 C43     1.8163    -4.4946    -0.1196 C
44 H44     1.7203    -5.5608    -0.2738 H
45 C45     2.9807    -3.7533    -0.1154 C
46 H46     3.9842    -4.1199    -0.2823 H
47 C47     0.0177     6.6631    -0.1046 C
48 C48     7.6222    -1.5750    -0.3524 C
49 C49    -7.6267    -1.5520    -0.2196 C
50 F50     4.8198    -0.2593    -2.2160 F
51 F51     5.0171    -2.4085     2.0072 F
52 F52     7.6918    -2.6556     1.7470 F
53 F53     7.4977    -0.4975    -2.4515 F
54 F54     8.9452    -1.6972    -0.4773 F
55 F55    -7.8003    -0.4490     1.8629 F
56 F56    -8.9552    -1.6545    -0.2949 F
57 F57    -5.1138    -0.2425     2.0216 F
58 F58    -4.7129    -2.4357    -2.1645 F
59 F59    -7.3960    -2.6459    -2.3011 F
60 F60     0.8058     3.9898     2.1993 F
61 F61    -0.8062     3.8756    -2.2561 F
62 F62    -0.7876     6.5773    -2.3254 F
63 F63     0.8291     6.6932     2.1142 F
64 F64     0.0298     7.9966    -0.1436 F
65 C65    -0.0260    -0.7647     2.6760 C
66 C66    -0.3908    -1.8523     3.4885 C
67 C67     0.3013     0.4113     3.3749 C
68 C68    -0.4105    -1.7299     4.8780 C
69 H69    -0.6661    -2.8080     3.0461 H
70 C70     0.2508     0.4477     4.7686 C
71 H71     0.5937     1.3162     2.8458 H
72 N72    -0.0972    -0.6005     5.5282 N
73 H73    -0.6930    -2.5775     5.5029 H
74 H74     0.5022     1.3629     5.3052 H
75 C75    -0.0056    -0.7232    -2.0845 C
76 C76     0.0293    -1.9410    -2.7101 C
77 C77    -0.0199     0.4650    -2.7653 C
78 C78     0.0573    -1.9094    -4.1197 C
79 H79     0.0376    -2.9006    -2.2000 H
80 C80     0.0084     0.3735    -4.1707 C
81 H81    -0.0561     1.4447    -2.2988 H
82 N82     0.0472    -0.7837    -4.8304 N
83 H83     0.0885    -2.8475    -4.6724 H
84 H84    -0.0031     1.2861    -4.7650 H
85 Al85     0.0024    -0.8828     0.6757 Al
@<TRIPOS>BOND
1 1 5 Ar
2 1 7 Ar
3 1 25 1
4 2 10 Ar
5 2 12 Ar
6 2 30 1
7 3 15 Ar
8 3 17 Ar
9 3 20 1
10 4 6 Ar
11 4 18 Ar
12 4 43 Ar
13 5 6 Ar
14 5 45 Ar
15 6 85 1
16 7 8 Ar
17 7 11 Ar
18 8 9 2
19 8 35 1
20 9 10 Ar
21 9 36 1
22 10 11 1
23 11 85 1
24 12 13 Ar
25 12 16 1
26 13 14 2
27 13 37 1
28 14 15 Ar
29 14 38 1
30 15 16 Ar
31 16 85 1
32 17 19 Ar
33 17 39 Ar
34 18 19 Ar
35 18 41 Ar
36 19 85 1
37 20 21 Ar
38 20 24 Ar
39 21 22 Ar
40 21 58 1
41 22 49 Ar
42 22 59 1
43 23 24 Ar
44 23 49 Ar
45 23 55 1
46 24 57 1
47 25 26 Ar
48 25 29 Ar
49 26 27 Ar
50 26 51 1
51 27 48 Ar
52 27 52 1
53 28 29 Ar
54 28 48 Ar
55 28 53 1
56 29 50 1
57 30 31 Ar
58 30 34 Ar
59 31 32 Ar
60 31 60 1
61 32 47 Ar
62 32 63 1
63 33 34 Ar
64 33 47 Ar
65 33 62 1
66 34 61 1
67 39 40 1
68 39 41 2
69 41 42 1
70 43 44 1
71 43 45 2
72 45 46 1
73 47 64 1
74 48 54 1
75 49 56 1
76 65 66 Ar
77 65 67 Ar
78 65 85 1
79 66 68 Ar
80 66 69 1
81 67 70 Ar
82 67 71 1
83 68 72 Ar
84 68 73 1
85 70 72 Ar
86 70 74 1
87 75 76 2
88 75 77 2
89 76 78 Ar
90 76 79 1
91 77 80 Ar
92 77 81 1
93 78 82 Ar
94 78 83 1
95 80 82 Ar
96 80 84 1
