# Al_F15_OPT
# Created by GaussView 6.0.16
#

#
#

@<TRIPOS>MOLECULE
Molecule Name
75 86
SMALL
NO_CHARGES


@<TRIPOS>ATOM
1 C1    -3.3295    -1.3370    -0.3609 C
2 C2    -0.0154     2.2903    -0.4375 C
3 C3     3.3761    -1.2579    -0.2912 C
4 C4    -0.6700    -3.6664    -0.3359 C
5 C5    -1.7298    -4.6201    -0.4543 C
6 C6    -2.9112    -3.9011    -0.4414 C
7 C7    -2.5637    -2.5062    -0.3313 C
8 N8    -1.1966    -2.4228    -0.2536 N
9 C9    -2.7568    -0.0276    -0.3891 C
10 C10    -3.4782     1.1985    -0.5652 C
11 C11    -2.5591     2.2193    -0.5957 C
12 C12    -1.2643     1.6255    -0.4400 C
13 N13    -1.4088     0.2598    -0.3173 N
14 C14     1.2478     1.6601    -0.4053 C
15 C15     2.5358     2.2867    -0.4660 C
16 C16     3.4749     1.2862    -0.4267 C
17 C17     2.7742     0.0381    -0.3286 C
18 N18     1.4181     0.2925    -0.3175 N
19 C19     2.6370    -2.4445    -0.2798 C
20 C20     3.0193    -3.8305    -0.3878 C
21 C21     1.8558    -4.5777    -0.4220 C
22 C22     0.7714    -3.6499    -0.3198 C
23 N23     1.2678    -2.3944    -0.2214 N
24 C24     7.0060    -0.9079     0.7739 C
25 C25     5.6179    -0.8261     0.7575 C
26 C26     4.8587    -1.3410    -0.2993 C
27 C27     5.5568    -1.9482    -1.3480 C
28 C28     6.9444    -2.0447    -1.3489 C
29 C29    -0.6439     5.8859     0.6047 C
30 C30    -0.5923     4.4963     0.6047 C
31 C31    -0.0485     3.7766    -0.4645 C
32 C32     0.4444     4.5134    -1.5451 C
33 C33     0.4068     5.9037    -1.5641 C
34 C34    -6.8547    -2.2109    -1.4926 C
35 C35    -5.4697    -2.0864    -1.4607 C
36 C36    -4.8089    -1.4512    -0.4044 C
37 C37    -5.6032    -0.9344     0.6255 C
38 C38    -6.9893    -1.0446     0.6108 C
39 H39    -1.6181    -5.6921    -0.5438 H
40 H40    -3.9120    -4.3016    -0.5217 H
41 H41    -4.5489     1.2840    -0.6824 H
42 H42    -2.7571     3.2714    -0.7422 H
43 H43     2.7207     3.3483    -0.5390 H
44 H44     4.5478     1.4009    -0.4809 H
45 H45     4.0308    -4.2061    -0.4538 H
46 H46     1.7713    -5.6516    -0.5175 H
47 C47    -0.1409     6.5914    -0.4851 C
48 C48     7.6711    -1.5217    -0.2837 C
49 C49    -7.6168    -1.6874    -0.4526 C
50 Al50     0.0151    -0.9625     0.2482 Al
51 C51     0.0111    -0.8504     2.2438 C
52 C52     0.3650    -1.9366     3.0601 C
53 C53    -0.3326     0.3287     2.9265 C
54 C54     0.3592    -1.8082     4.4497 C
55 H55     0.6509    -2.8921     2.6246 H
56 C56    -0.3073     0.3684     4.3212 C
57 H57    -0.6193     1.2294     2.3874 H
58 N58     0.0305    -0.6772     5.0882 N
59 H59     0.6334    -2.6523     5.0826 H
60 H60    -0.5717     1.2839     4.8504 H
61 F61    -1.1642     6.5466     1.6440 F
62 F62     5.0094    -0.2387     1.7955 F
63 F63     7.7030    -0.4098     1.8006 F
64 F64     9.0030    -1.6071    -0.2767 F
65 F65     7.5827    -2.6278    -2.3696 F
66 F66     4.8930    -2.4507    -2.3985 F
67 F67     0.9659     3.8830    -2.6065 F
68 F68     0.8832     6.5806    -2.6145 F
69 F69    -0.1829     7.9251    -0.4946 F
70 F70    -1.0759     3.8487     1.6744 F
71 F71    -5.0315    -0.3192     1.6680 F
72 F72    -4.7719    -2.5883    -2.4891 F
73 F73    -7.4567    -2.8208    -2.5198 F
74 F74    -7.7205    -0.5454     1.6129 F
75 F75    -8.9463    -1.8004    -0.4754 F
@<TRIPOS>BOND
1 1 7 Ar
2 1 9 Ar
3 1 36 1
4 2 12 Ar
5 2 14 Ar
6 2 31 1
7 3 17 Ar
8 3 19 Ar
9 3 26 1
10 4 5 Ar
11 4 8 Ar
12 4 22 Ar
13 5 6 2
14 5 39 1
15 6 7 Ar
16 6 40 1
17 7 8 Ar
18 8 50 1
19 9 10 Ar
20 9 13 Ar
21 10 11 2
22 10 41 1
23 11 12 Ar
24 11 42 1
25 12 13 Ar
26 13 50 1
27 14 15 Ar
28 14 18 Ar
29 15 16 2
30 15 43 1
31 16 17 Ar
32 16 44 1
33 17 18 Ar
34 18 50 1
35 19 20 Ar
36 19 23 Ar
37 20 21 2
38 20 45 1
39 21 22 Ar
40 21 46 1
41 22 23 Ar
42 23 50 1
43 24 25 Ar
44 24 48 Ar
45 24 63 1
46 25 26 Ar
47 25 62 1
48 26 27 Ar
49 27 28 Ar
50 27 66 1
51 28 48 Ar
52 28 65 1
53 29 30 Ar
54 29 47 Ar
55 29 61 1
56 30 31 Ar
57 30 70 1
58 31 32 Ar
59 32 33 Ar
60 32 67 1
61 33 47 Ar
62 33 68 1
63 34 35 Ar
64 34 49 Ar
65 34 73 1
66 35 36 Ar
67 35 72 1
68 36 37 Ar
69 37 38 Ar
70 37 71 1
71 38 49 Ar
72 38 74 1
73 47 69 1
74 48 64 1
75 49 75 1
76 50 51 1
77 51 52 Ar
78 51 53 Ar
79 52 54 Ar
80 52 55 1
81 53 56 Ar
82 53 57 1
83 54 58 Ar
84 54 59 1
85 56 58 Ar
86 56 60 1
