# Ar3_Cu_Et_OPT
# Created by GaussView 6.0.16
#

#
#

@<TRIPOS>MOLECULE
Molecule Name
124 134
SMALL
NO_CHARGES


@<TRIPOS>ATOM
1 C1     2.4604     1.2447    -0.1430 C
2 C2    -2.1981     2.8135     0.0432 C
3 C3    -3.4886    -1.9323    -0.1362 C
4 C4     1.2277    -2.1120    -0.2648 C
5 C5     2.5716    -2.4574     0.0022 C
6 C6     3.2503    -1.2349     0.1103 C
7 C7     2.3264    -0.1589    -0.1202 C
8 N8     1.1176    -0.7530    -0.4040 N
9 C9     1.3221     2.0857    -0.1516 C
10 C10     1.3268     3.4882    -0.4756 C
11 C11     0.0343     3.9335    -0.4189 C
12 C12    -0.7922     2.8108    -0.0659 C
13 N13     0.0142     1.7015     0.1152 N
14 C14    -2.9823     1.6421     0.0810 C
15 C15    -4.3640     1.5535     0.4571 C
16 C16    -4.7162     0.2290     0.4073 C
17 C17    -3.5603    -0.5161    -0.0076 C
18 N18    -2.5204     0.3710    -0.2211 N
19 C19    -2.2608    -2.6023    -0.1974 C
20 C20    -1.9409    -3.9667    -0.5164 C
21 C21    -0.5619    -4.0743    -0.5693 C
22 C22    -0.0356    -2.7796    -0.2825 C
23 N23    -1.0673    -1.9342    -0.0125 N
24 H24    -0.3310     4.9252    -0.6427 H
25 H25     0.0130    -4.9602    -0.8044 H
26 H26    -2.6619    -4.7402    -0.7407 H
27 H27    -4.9751     2.3863     0.7736 H
28 H28    -5.6726    -0.2047     0.6614 H
29 Cu29    -0.6553    -0.0761    -0.1263 Cu
30 N30     4.5987    -1.1170     0.5899 N
31 O31     4.8520    -0.2506     1.4265 O
32 O32     5.4311    -1.9203     0.1501 O
33 H33     2.2055     4.0530    -0.7506 H
34 C34     3.7998     1.8590    -0.2394 C
35 C35     4.7209     1.4087    -1.2001 C
36 C36     4.1939     2.8958     0.6161 C
37 C37     5.9859     1.9741    -1.2892 C
38 H38     4.4353     0.6157    -1.8849 H
39 C39     5.4686     3.4508     0.5264 C
40 H40     3.5072     3.2461     1.3802 H
41 C41     6.3954     3.0040    -0.4248 C
42 H42     6.6684     1.6011    -2.0468 H
43 H43     5.7382     4.2359     1.2230 H
44 C44    -4.7424    -2.7147    -0.1590 C
45 C45    -4.8952    -3.8572     0.6470 C
46 C46    -5.8180    -2.3449    -0.9801 C
47 C47    -6.0789    -4.5848     0.6327 C
48 H48    -4.0870    -4.1542     1.3076 H
49 C49    -6.9997    -3.0840    -0.9920 C
50 H50    -5.7201    -1.4791    -1.6275 H
51 C51    -7.1625    -4.2169    -0.1834 C
52 H52    -6.1625    -5.4506     1.2823 H
53 H53    -7.8000    -2.7637    -1.6486 H
54 C54    -2.8900     4.1228     0.1047 C
55 C55    -3.9659     4.4160    -0.7511 C
56 C56    -2.4880     5.1109     1.0146 C
57 C57    -4.6012     5.6507    -0.6974 C
58 H58    -4.2875     3.6739    -1.4750 H
59 C59    -3.1381     6.3432     1.0696 C
60 H60    -1.6691     4.9049     1.6968 H
61 C61    -4.2059     6.6452     0.2143 C
62 H62    -5.4178     5.8453    -1.3860 H
63 H63    -2.7998     7.0710     1.7978 H
64 C64    -8.4582    -5.0370    -0.1479 C
65 C65     7.8089     3.5861    -0.5459 C
66 C66    -4.9373     7.9933     0.2356 C
67 C67    -4.7707     8.6802    -1.1374 C
68 H68    -5.1755     8.0680    -1.9500 H
69 H69    -5.2988     9.6413    -1.1483 H
70 H70    -3.7134     8.8701    -1.3554 H
71 C71    -6.4380     7.7556     0.5097 C
72 H72    -6.5875     7.2642     1.4779 H
73 H73    -6.9764     8.7106     0.5260 H
74 H74    -6.8989     7.1269    -0.2591 H
75 C75    -4.3921     8.9376     1.3186 C
76 H76    -4.4993     8.5125     2.3229 H
77 H77    -3.3347     9.1760     1.1581 H
78 H78    -4.9487     9.8811     1.2987 H
79 C79     7.9876     4.2038    -1.9495 C
80 H80     9.0011     4.6079    -2.0608 H
81 H81     7.8350     3.4641    -2.7423 H
82 H82     7.2764     5.0218    -2.1131 H
83 C83     8.8415     2.4546    -0.3507 C
84 H84     8.7364     1.6719    -1.1090 H
85 H85     9.8605     2.8539    -0.4230 H
86 H86     8.7271     1.9838     0.6320 H
87 C87     8.0827     4.6783     0.5002 C
88 H88     7.3967     5.5262     0.3932 H
89 H89     7.9978     4.2945     1.5231 H
90 H90     9.1017     5.0611     0.3747 H
91 C91    -9.5163    -4.5015    -1.1261 C
92 H92    -9.1638    -4.5273    -2.1635 H
93 H93   -10.4181    -5.1210    -1.0681 H
94 H94    -9.8089    -3.4725    -0.8890 H
95 C95    -8.1508    -6.5031    -0.5219 C
96 H96    -7.4287    -6.9574     0.1644 H
97 H97    -9.0675    -7.1037    -0.4852 H
98 H98    -7.7400    -6.5729    -1.5355 H
99 C99    -9.0461    -4.9863     1.2795 C
100 H100    -8.3545    -5.4023     2.0196 H
101 H101    -9.2712    -3.9551     1.5745 H
102 H102    -9.9762    -5.5653     1.3288 H
103 C103     3.0543    -3.8585     0.2412 C
104 H104     2.2560    -4.5505    -0.0459 H
105 C105     4.2679    -4.2598    -0.6140 C
106 C106     3.3708    -4.1918     1.7037 C
107 O107     5.1861    -4.9413    -0.2181 O
108 O108     3.1932    -5.2870     2.1865 O
109 O109     4.1143    -3.8167    -1.8684 O
110 O110     3.8663    -3.1283     2.3455 O
111 C111     5.1972    -4.1080    -2.7879 C
112 H112     5.1290    -3.3192    -3.5407 H
113 H113     6.1434    -4.0132    -2.2511 H
114 C114     5.0369    -5.4859    -3.4037 C
115 H115     5.8309    -5.6567    -4.1402 H
116 H116     5.1067    -6.2635    -2.6376 H
117 H117     4.0714    -5.5761    -3.9133 H
118 C118     4.4467    -3.3371     3.6564 C
119 H119     4.2945    -2.3887     4.1758 H
120 H120     3.8923    -4.1271     4.1673 H
121 C121     5.9199    -3.6701     3.5079 C
122 H122     6.4332    -2.8815     2.9490 H
123 H123     6.3838    -3.7617     4.4970 H
124 H124     6.0505    -4.6159     2.9732 H
@<TRIPOS>BOND
1 1 7 Ar
2 1 9 Ar
3 1 34 1
4 2 12 Ar
5 2 14 Ar
6 2 54 1
7 3 17 Ar
8 3 19 Ar
9 3 44 1
10 4 5 Ar
11 4 8 Ar
12 4 22 Ar
13 5 6 Ar
14 5 103 1
15 6 7 Ar
16 6 30 1
17 7 8 Ar
18 8 29 1
19 9 10 Ar
20 9 13 1
21 10 11 2
22 10 33 1
23 11 12 Ar
24 11 24 1
25 12 13 1
26 13 29 1
27 14 15 Ar
28 14 18 1
29 15 16 2
30 15 27 1
31 16 17 Ar
32 16 28 1
33 17 18 1
34 18 29 1
35 19 20 Ar
36 19 23 Ar
37 20 21 2
38 20 26 1
39 21 22 Ar
40 21 25 1
41 22 23 Ar
42 23 29 1
43 30 31 Ar
44 30 32 Ar
45 34 35 Ar
46 34 36 Ar
47 35 37 Ar
48 35 38 1
49 36 39 Ar
50 36 40 1
51 37 41 Ar
52 37 42 1
53 39 41 Ar
54 39 43 1
55 41 65 1
56 44 45 Ar
57 44 46 Ar
58 45 47 Ar
59 45 48 1
60 46 49 Ar
61 46 50 1
62 47 51 Ar
63 47 52 1
64 49 51 Ar
65 49 53 1
66 51 64 1
67 54 55 Ar
68 54 56 Ar
69 55 57 Ar
70 55 58 1
71 56 59 Ar
72 56 60 1
73 57 61 Ar
74 57 62 1
75 59 61 Ar
76 59 63 1
77 61 66 1
78 64 91 1
79 64 95 1
80 64 99 1
81 65 79 1
82 65 83 1
83 65 87 1
84 66 67 1
85 66 71 1
86 66 75 1
87 67 68 1
88 67 69 1
89 67 70 1
90 71 72 1
91 71 73 1
92 71 74 1
93 75 76 1
94 75 77 1
95 75 78 1
96 79 80 1
97 79 81 1
98 79 82 1
99 83 84 1
100 83 85 1
101 83 86 1
102 87 88 1
103 87 89 1
104 87 90 1
105 91 92 1
106 91 93 1
107 91 94 1
108 95 96 1
109 95 97 1
110 95 98 1
111 99 100 1
112 99 101 1
113 99 102 1
114 103 104 1
115 103 105 1
116 103 106 1
117 105 107 2
118 105 109 Ar
119 106 108 2
120 106 110 Ar
121 109 111 1
122 110 118 1
123 111 112 1
124 111 113 1
125 111 114 1
126 114 115 1
127 114 116 1
128 114 117 1
129 118 119 1
130 118 120 1
131 118 121 1
132 121 122 1
133 121 123 1
134 121 124 1
