# Ar3_Cu_H_OPT
# Created by GaussView 6.0.16
#

#
#

@<TRIPOS>MOLECULE
Molecule Name
105 115
SMALL
NO_CHARGES


@<TRIPOS>ATOM
1 C1    -3.2292    -0.7884     0.0379 C
2 C2     0.5424     2.3729    -0.0188 C
3 C3     3.4569    -1.5936    -0.0105 C
4 C4    -0.8778    -3.4624    -0.0372 C
5 C5    -2.0373    -4.2466    -0.2845 C
6 C6    -3.1217    -3.3768    -0.2497 C
7 C7    -2.6132    -2.0436     0.0190 C
8 N8    -1.2479    -2.1700     0.1863 N
9 C9    -2.4797     0.4175     0.0600 C
10 C10    -3.0071     1.7173     0.3628 C
11 C11    -1.9619     2.6061     0.3455 C
12 C12    -0.7731     1.8646     0.0352 C
13 N13    -1.1176     0.5392    -0.1675 N
14 C14     1.6966     1.5673    -0.0547 C
15 C15     3.0281     2.0025    -0.3690 C
16 C16     3.8340     0.8938    -0.3646 C
17 C17     3.0157    -0.2432    -0.0453 C
18 N18     1.7198     0.1977     0.1693 N
19 C19     2.5515    -2.6631    -0.0458 C
20 C20     2.7398    -4.0721     0.1664 C
21 C21     1.4906    -4.6695     0.1575 C
22 C22     0.5359    -3.6325    -0.0551 C
23 N23     1.2027    -2.4540    -0.2383 N
24 H24    -1.9926     3.6625     0.5692 H
25 H25     1.2656    -5.7171     0.3099 H
26 H26     3.6886    -4.5499     0.3681 H
27 H27     3.3059     3.0172    -0.6148 H
28 H28     4.8890     0.8490    -0.5942 H
29 Cu29     0.1502    -0.8829    -0.0090 Cu
30 H30    -4.0427     1.9251     0.5913 H
31 C31    -4.7099    -0.6950     0.0929 C
32 C32    -5.4239    -1.3167     1.1318 C
33 C33    -5.4368    -0.0140    -0.8916 C
34 C34    -6.8120    -1.2729     1.1641 C
35 H35    -4.8780    -1.8431     1.9090 H
36 C36    -6.8317     0.0210    -0.8540 C
37 H37    -4.9058     0.4743    -1.7033 H
38 C38    -7.5515    -0.6127     0.1672 C
39 H39    -7.3290    -1.7729     1.9768 H
40 H40    -7.3544     0.5441    -1.6459 H
41 C41     4.9086    -1.8760     0.0263 C
42 C42     5.4872    -2.8094    -0.8521 C
43 C43     5.7535    -1.2290     0.9398 C
44 C44     6.8509    -3.0749    -0.8128 C
45 H45     4.8610    -3.3094    -1.5840 H
46 C46     7.1195    -1.5054     0.9766 C
47 H47     5.3314    -0.5147     1.6399 H
48 C48     7.7025    -2.4314     0.1013 C
49 H49     7.2602    -3.7932    -1.5165 H
50 H50     7.7292    -0.9870     1.7073 H
51 C51     0.7183     3.8460    -0.0405 C
52 C52     1.5677     4.4903     0.8748 C
53 C53     0.0433     4.6403    -0.9775 C
54 C54     1.7272     5.8709     0.8482 C
55 H55     2.0905     3.9000     1.6209 H
56 C56     0.2170     6.0237    -1.0052 C
57 H57    -0.6112     4.1663    -1.7026 H
58 C58     1.0603     6.6729    -0.0939 C
59 H59     2.3819     6.3320     1.5814 H
60 H60    -0.3150     6.5936    -1.7579 H
61 C61     9.2023    -2.7545     0.1047 C
62 C62    -9.0843    -0.6320     0.2201 C
63 C63     1.2703     8.1926    -0.0886 C
64 C64     0.7974     8.7647     1.2653 C
65 H65     1.3493     8.3306     2.1054 H
66 H66     0.9462     9.8510     1.2929 H
67 H67    -0.2680     8.5634     1.4254 H
68 C68     2.7707     8.5028    -0.2785 C
69 H69     3.1369     8.1013    -1.2304 H
70 H70     2.9375     9.5867    -0.2797 H
71 H71     3.3812     8.0736     0.5227 H
72 C72     0.4877     8.8947    -1.2097 C
73 H73     0.7972     8.5478    -2.2021 H
74 H74    -0.5928     8.7395    -1.1137 H
75 H75     0.6708     9.9741    -1.1657 H
76 C76    -9.5632    -0.0157     1.5524 C
77 H77   -10.6588    -0.0210     1.6000 H
78 H78    -9.1914    -0.5725     2.4187 H
79 H79    -9.2242     1.0219     1.6508 H
80 C80    -9.5666    -2.0967     0.1293 C
81 H81    -9.1852    -2.7021     0.9580 H
82 H82   -10.6622    -2.1399     0.1582 H
83 H83    -9.2307    -2.5646    -0.8028 H
84 C84    -9.7187     0.1618    -0.9329 C
85 H85    -9.4247     1.2176    -0.9123 H
86 H86    -9.4489    -0.2509    -1.9114 H
87 H87   -10.8105     0.1217    -0.8498 H
88 C88     9.9707    -1.9529     1.1672 C
89 H89     9.6119    -2.1678     2.1800 H
90 H90    11.0332    -2.2181     1.1311 H
91 H91     9.8949    -0.8728     0.9977 H
92 C92     9.3994    -4.2580     0.3956 C
93 H93     8.9131    -4.8867    -0.3577 H
94 H94    10.4672    -4.5083     0.3995 H
95 H95     8.9842    -4.5256     1.3739 H
96 C96     9.7981    -2.4191    -1.2801 C
97 H97     9.3229    -2.9974    -2.0792 H
98 H98     9.6707    -1.3562    -1.5152 H
99 H99    10.8712    -2.6451    -1.2980 H
100 H100    -2.0546    -5.3025    -0.5148 H
101 N101    -4.4558    -3.6913    -0.5155 N
102 H102    -5.0855    -2.9368    -0.7641 H
103 C103    -5.0382    -4.9191    -0.3660 C
104 O104    -6.2110    -5.1476    -0.6133 O
105 H105    -4.3392    -5.6839     0.0145 H
@<TRIPOS>BOND
1 1 7 Ar
2 1 9 Ar
3 1 31 1
4 2 12 Ar
5 2 14 Ar
6 2 51 1
7 3 17 Ar
8 3 19 Ar
9 3 41 1
10 4 5 Ar
11 4 8 Ar
12 4 22 Ar
13 5 6 Ar
14 5 100 1
15 6 7 1
16 6 101 1
17 7 8 Ar
18 8 29 1
19 9 10 Ar
20 9 13 1
21 10 11 2
22 10 30 1
23 11 12 Ar
24 11 24 1
25 12 13 1
26 13 29 1
27 14 15 Ar
28 14 18 1
29 15 16 2
30 15 27 1
31 16 17 Ar
32 16 28 1
33 17 18 1
34 18 29 1
35 19 20 Ar
36 19 23 Ar
37 20 21 2
38 20 26 1
39 21 22 Ar
40 21 25 1
41 22 23 Ar
42 23 29 1
43 31 32 Ar
44 31 33 Ar
45 32 34 Ar
46 32 35 1
47 33 36 Ar
48 33 37 1
49 34 38 Ar
50 34 39 1
51 36 38 Ar
52 36 40 1
53 38 62 1
54 41 42 Ar
55 41 43 Ar
56 42 44 Ar
57 42 45 1
58 43 46 Ar
59 43 47 1
60 44 48 Ar
61 44 49 1
62 46 48 Ar
63 46 50 1
64 48 61 1
65 51 52 Ar
66 51 53 Ar
67 52 54 Ar
68 52 55 1
69 53 56 Ar
70 53 57 1
71 54 58 Ar
72 54 59 1
73 56 58 Ar
74 56 60 1
75 58 63 1
76 61 88 1
77 61 92 1
78 61 96 1
79 62 76 1
80 62 80 1
81 62 84 1
82 63 64 1
83 63 68 1
84 63 72 1
85 64 65 1
86 64 66 1
87 64 67 1
88 68 69 1
89 68 70 1
90 68 71 1
91 72 73 1
92 72 74 1
93 72 75 1
94 76 77 1
95 76 78 1
96 76 79 1
97 80 81 1
98 80 82 1
99 80 83 1
100 84 85 1
101 84 86 1
102 84 87 1
103 88 89 1
104 88 90 1
105 88 91 1
106 92 93 1
107 92 94 1
108 92 95 1
109 96 97 1
110 96 98 1
111 96 99 1
112 101 102 1
113 101 103 Ar
114 103 104 2
115 103 105 1
