# Ar3_Cu_Me_OPT
# Created by GaussView 6.0.16
#

#
#

@<TRIPOS>MOLECULE
Molecule Name
108 118
SMALL
NO_CHARGES


@<TRIPOS>ATOM
1 C1    -3.1653    -0.5330     0.0444 C
2 C2     0.7415     2.4607    -0.0149 C
3 C3     3.4795    -1.6308    -0.0198 C
4 C4    -0.9350    -3.3051    -0.0266 C
5 C5    -2.1260    -4.0392    -0.2779 C
6 C6    -3.1756    -3.1257    -0.2532 C
7 C7    -2.6056    -1.8137     0.0208 C
8 N8    -1.2484    -1.9982     0.1937 N
9 C9    -2.3627     0.6390     0.0738 C
10 C10    -2.8317     1.9575     0.3892 C
11 C11    -1.7486     2.8004     0.3745 C
12 C12    -0.5949     2.0107     0.0512 C
13 N13    -0.9980     0.7025    -0.1587 N
14 C14     1.8586     1.6044    -0.0670 C
15 C15     3.2028     1.9786    -0.4045 C
16 C16     3.9594     0.8353    -0.4043 C
17 C17     3.0972    -0.2622    -0.0641 C
18 N18     1.8247     0.2362     0.1644 N
19 C19     2.5266    -2.6590    -0.0393 C
20 C20     2.6515    -4.0732     0.1859 C
21 C21     1.3768    -4.6144     0.1809 C
22 C22     0.4697    -3.5378    -0.0412 C
23 N23     1.1881    -2.3912    -0.2327 N
24 H24    -1.7332     3.8553     0.6069 H
25 H25     1.1055    -5.6497     0.3423 H
26 H26     3.5774    -4.5914     0.3934 H
27 H27     3.5206     2.9785    -0.6618 H
28 H28     5.0076     0.7426    -0.6503 H
29 Cu29     0.2065    -0.7741    -0.0043 Cu
30 H30    -3.8568     2.2077     0.6229 H
31 C31    -4.6403    -0.3740     0.0984 C
32 C32    -5.3813    -0.9657     1.1355 C
33 C33    -5.3360     0.3306    -0.8916 C
34 C34    -6.7666    -0.8754     1.1578 C
35 H35    -4.8581    -1.5095     1.9163 H
36 C36    -6.7297     0.4105    -0.8653 C
37 H37    -4.7827     0.7983    -1.7007 H
38 C38    -7.4768    -0.1991     0.1504 C
39 H39    -7.3063    -1.3566     1.9671 H
40 H40    -7.2297     0.9468    -1.6631 H
41 C41     4.9167    -1.9789     0.0095 C
42 C42     5.4398    -2.9633    -0.8482 C
43 C43     5.8030    -1.3506     0.8967 C
44 C44     6.7878    -3.2989    -0.8109 C
45 H45     4.7830    -3.4493    -1.5625 H
46 C46     7.1535    -1.6958     0.9302 C
47 H47     5.4250    -0.5972     1.5808 H
48 C48     7.6795    -2.6772     0.0796 C
49 H49     7.1526    -4.0570    -1.4972 H
50 H50     7.7956    -1.1889     1.6411 H
51 C51     0.9835     3.9243    -0.0323 C
52 C52     1.8849     4.5223     0.8649 C
53 C53     0.3219     4.7564    -0.9461 C
54 C54     2.1068     5.8943     0.8435 C
55 H55     2.3997     3.9028     1.5927 H
56 C56     0.5564     6.1308    -0.9673 C
57 H57    -0.3706     4.3188    -1.6584 H
58 C58     1.4512     6.7338    -0.0735 C
59 H59     2.8027     6.3189     1.5605 H
60 H60     0.0306     6.7307    -1.7008 H
61 C61     9.1592    -3.0819     0.0850 C
62 C62    -9.0099    -0.1856     0.1818 C
63 C63     1.7337     8.2418    -0.0654 C
64 C64     1.3709     8.8227     1.3188 C
65 H65     1.9513     8.3563     2.1215 H
66 H66     1.5735     9.9003     1.3441 H
67 H67     0.3087     8.6715     1.5425 H
68 C68     3.2343     8.4788    -0.3416 C
69 H69     3.5221     8.0716    -1.3176 H
70 H70     3.4565     9.5528    -0.3422 H
71 H71     3.8680     8.0082     0.4174 H
72 C72     0.9222     8.9942    -1.1319 C
73 H73     1.1618     8.6517    -2.1448 H
74 H74    -0.1569     8.8825    -0.9777 H
75 H75     1.1532    10.0642    -1.0832 H
76 C76    -9.4978     0.4317     1.5102 C
77 H77   -10.5939     0.4431     1.5422 H
78 H78    -9.1474    -0.1348     2.3791 H
79 H79    -9.1443     1.4635     1.6190 H
80 C80    -9.5180    -1.6406     0.0731 C
81 H81    -9.1660    -2.2572     0.9066 H
82 H82   -10.6147    -1.6627     0.0777 H
83 H83    -9.1686    -2.1109    -0.8524 H
84 C84    -9.6102     0.6274    -0.9760 C
85 H85    -9.2911     1.6757    -0.9475 H
86 H86    -9.3370     0.2115    -1.9521 H
87 H87   -10.7036     0.6132    -0.9076 H
88 C88     9.9746    -2.3005     1.1272 C
89 H89     9.6041    -2.4677     2.1448 H
90 H90    11.0195    -2.6289     1.0989 H
91 H91     9.9625    -1.2225     0.9305 H
92 C92     9.2759    -4.5872     0.4077 C
93 H93     8.7485    -5.2041    -0.3274 H
94 H94    10.3282    -4.8959     0.4085 H
95 H95     8.8562    -4.8105     1.3953 H
96 C96     9.7662    -2.8093    -1.3087 C
97 H97     9.2589    -3.3800    -2.0936 H
98 H98     9.6930    -1.7467    -1.5673 H
99 H99    10.8261    -3.0908    -1.3241 H
100 H100    -2.1798    -5.0925    -0.5060 H
101 N101    -4.5203    -3.3384    -0.5578 N
102 H102    -5.0445    -2.5281    -0.8665 H
103 C103    -5.3311    -4.4419    -0.3812 C
104 O104    -6.5098    -4.3790    -0.7133 O
105 C105    -4.7248    -5.6849     0.2297 C
106 H106    -5.5407    -6.3145     0.5891 H
107 H107    -4.1642    -6.2481    -0.5257 H
108 H108    -4.0419    -5.4531     1.0521 H
@<TRIPOS>BOND
1 1 7 Ar
2 1 9 Ar
3 1 31 1
4 2 12 Ar
5 2 14 Ar
6 2 51 1
7 3 17 Ar
8 3 19 Ar
9 3 41 1
10 4 5 Ar
11 4 8 Ar
12 4 22 Ar
13 5 6 Ar
14 5 100 1
15 6 7 1
16 6 101 1
17 7 8 Ar
18 8 29 1
19 9 10 Ar
20 9 13 1
21 10 11 2
22 10 30 1
23 11 12 Ar
24 11 24 1
25 12 13 1
26 13 29 1
27 14 15 Ar
28 14 18 1
29 15 16 2
30 15 27 1
31 16 17 Ar
32 16 28 1
33 17 18 1
34 18 29 1
35 19 20 Ar
36 19 23 Ar
37 20 21 2
38 20 26 1
39 21 22 Ar
40 21 25 1
41 22 23 Ar
42 23 29 1
43 31 32 Ar
44 31 33 Ar
45 32 34 Ar
46 32 35 1
47 33 36 Ar
48 33 37 1
49 34 38 Ar
50 34 39 1
51 36 38 Ar
52 36 40 1
53 38 62 1
54 41 42 Ar
55 41 43 Ar
56 42 44 Ar
57 42 45 1
58 43 46 Ar
59 43 47 1
60 44 48 Ar
61 44 49 1
62 46 48 Ar
63 46 50 1
64 48 61 1
65 51 52 Ar
66 51 53 Ar
67 52 54 Ar
68 52 55 1
69 53 56 Ar
70 53 57 1
71 54 58 Ar
72 54 59 1
73 56 58 Ar
74 56 60 1
75 58 63 1
76 61 88 1
77 61 92 1
78 61 96 1
79 62 76 1
80 62 80 1
81 62 84 1
82 63 64 1
83 63 68 1
84 63 72 1
85 64 65 1
86 64 66 1
87 64 67 1
88 68 69 1
89 68 70 1
90 68 71 1
91 72 73 1
92 72 74 1
93 72 75 1
94 76 77 1
95 76 78 1
96 76 79 1
97 80 81 1
98 80 82 1
99 80 83 1
100 84 85 1
101 84 86 1
102 84 87 1
103 88 89 1
104 88 90 1
105 88 91 1
106 92 93 1
107 92 94 1
108 92 95 1
109 96 97 1
110 96 98 1
111 96 99 1
112 101 102 1
113 101 103 Ar
114 103 104 2
115 103 105 1
116 105 106 1
117 105 107 1
118 105 108 1
