# 149e_N_C2
# Created by GaussView 6.0.16
#

#
#

@<TRIPOS>MOLECULE
Molecule Name
91 98
SMALL
NO_CHARGES


@<TRIPOS>ATOM
1 C1     3.4144    -1.5425    -0.1217 C
2 C2    -0.0118     1.9976    -0.0229 C
3 C3    -3.4337    -1.5102    -0.0663 C
4 C4     0.6682    -3.8857    -0.2672 C
5 C5     1.6780    -4.7803     0.1427 C
6 C6     2.8832    -4.0743     0.2112 C
7 C7     2.6340    -2.7247    -0.1446 C
8 N8     1.2878    -2.6623    -0.4503 N
9 C9     2.8417    -0.2608    -0.1349 C
10 C10     3.4919     1.0111    -0.2545 C
11 C11     2.5388     1.9999    -0.2303 C
12 C12     1.2497     1.3891    -0.0880 C
13 N13     1.4789     0.0279    -0.0555 N
14 C14    -1.2640     1.3283     0.0076 C
15 C15    -2.5537     2.0027     0.0768 C
16 C16    -3.5088     1.0337     0.0619 C
17 C17    -2.8160    -0.2407    -0.0093 C
18 N18    -1.4502    -0.0212    -0.0379 N
19 C19    -2.6918    -2.7064    -0.2078 C
20 C20    -3.0049    -4.0974    -0.1541 C
21 C21    -1.8086    -4.8081    -0.2002 C
22 C22    -0.7478    -3.8665    -0.2903 C
23 N23    -1.3343    -2.6317    -0.3268 N
24 C24    -4.9073    -1.6223     0.0491 C
25 C25    -5.6736    -2.2438    -0.9441 C
26 C26    -7.0515    -2.3742    -0.8303 C
27 C27    -6.9889    -1.2675     1.2742 C
28 C28    -5.6070    -1.1461     1.1630 C
29 C29     4.8945    -1.6622    -0.0678 C
30 C30     5.5627    -2.2095     1.0273 C
31 C31     6.9447    -2.3614     1.0647 C
32 C32     7.0945    -1.3396    -1.0716 C
33 C33     5.7132    -1.2468    -1.1236 C
34 C34    -0.0165     3.4861     0.0049 C
35 C35     0.5286     4.2094     1.0710 C
36 C36     0.5132     5.5942     1.1123 C
37 C37    -0.5398     5.6452    -1.0139 C
38 C38    -0.5508     4.2547    -1.0295 C
39 H39     1.5197    -5.8096     0.4343 H
40 H40     3.8276    -4.4616     0.5639 H
41 H41     0.9276    -1.9670    -1.0916 H
42 H42     4.5568     1.1457    -0.3731 H
43 H43     2.7074     3.0622    -0.3310 H
44 H44     0.7735    -0.5941     0.3150 H
45 H45    -2.7066     3.0709     0.1369 H
46 H46    -4.5809     1.1714     0.0821 H
47 H47    -3.9990    -4.5140    -0.0726 H
48 H48    -1.6913    -5.8830    -0.1801 H
49 H49    -0.9071    -1.7021    -0.2337 H
50 C50    -7.7512    -1.8929     0.2828 C
51 C51    -0.0168     6.3769     0.0670 C
52 F52    -7.7282    -2.9705    -1.8319 F
53 F53    -5.0795    -2.7223    -2.0519 F
54 F54    -4.9437    -0.5628     2.1758 F
55 F55    -7.5859    -0.7830     2.3722 F
56 F56     1.0555     3.5559     2.1221 F
57 F57     1.0093     6.2029     2.2096 F
58 F58    -1.0686     3.6496    -2.1133 F
59 F59    -1.0250     6.2819    -2.1023 F
60 F60     5.1617    -0.6898    -2.2178 F
61 F61     7.8040    -0.8583    -2.1125 F
62 F62     4.8602    -2.6589     2.0845 F
63 F63     7.4725    -2.9659     2.1507 F
64 C64     7.7740    -1.9137     0.0217 C
65 N65     9.1663    -1.9578     0.0307 N
66 N66    -0.0367     7.7664     0.1781 N
67 N67    -9.1583    -2.0039     0.4437 N
68 C68     9.8825    -1.9903     1.2983 C
69 H69    10.8907    -1.5976     1.1254 H
70 C70     1.2391     8.4555     0.3521 C
71 H71     1.8981     7.8846     1.0052 H
72 C72    -9.9222    -1.1680    -0.4819 C
73 H73    -9.5549    -0.1388    -0.4304 H
74 C74    -9.6451    -3.3810     0.5184 C
75 H75   -10.6906    -3.3635     0.8450 H
76 H76    -9.5901    -3.9227    -0.4392 H
77 H77    -9.0656    -3.9307     1.2659 H
78 H78   -10.9728    -1.1709    -0.1719 H
79 H79    -9.8685    -1.5093    -1.5286 H
80 C80    -1.0217     8.5418    -0.5633 C
81 H81    -1.1575     9.4969    -0.0437 H
82 H82    -0.7220     8.7541    -1.5999 H
83 H83    -1.9809     8.0215    -0.5750 H
84 H84     1.0580     9.4302     0.8173 H
85 H85     1.7501     8.6205    -0.6107 H
86 C86     9.8350    -2.6868    -1.0436 C
87 H87     9.3218    -2.5290    -1.9917 H
88 H88    10.8600    -2.3145    -1.1431 H
89 H89     9.8772    -3.7694    -0.8402 H
90 H90     9.9756    -2.9998     1.7242 H
91 H91     9.3868    -1.3463     2.0267 H
@<TRIPOS>BOND
1 1 7 Ar
2 1 9 Ar
3 1 29 1
4 2 12 Ar
5 2 14 Ar
6 2 34 1
7 3 17 Ar
8 3 19 Ar
9 3 24 1
10 4 5 Ar
11 4 8 1
12 4 22 Ar
13 5 6 Ar
14 5 39 1
15 6 7 Ar
16 6 40 1
17 7 8 Ar
18 8 41 1
19 9 10 Ar
20 9 13 1
21 10 11 2
22 10 42 1
23 11 12 Ar
24 11 43 1
25 12 13 Ar
26 13 44 1
27 14 15 1
28 14 18 Ar
29 15 16 2
30 15 45 1
31 16 17 1
32 16 46 1
33 17 18 1
34 19 20 Ar
35 19 23 Ar
36 20 21 Ar
37 20 47 1
38 21 22 Ar
39 21 48 1
40 22 23 Ar
41 23 49 1
42 24 25 Ar
43 24 28 Ar
44 25 26 Ar
45 25 53 1
46 26 50 Ar
47 26 52 1
48 27 28 Ar
49 27 50 Ar
50 27 55 1
51 28 54 1
52 29 30 Ar
53 29 33 Ar
54 30 31 Ar
55 30 62 1
56 31 63 1
57 31 64 Ar
58 32 33 2
59 32 61 1
60 32 64 Ar
61 33 60 1
62 34 35 Ar
63 34 38 Ar
64 35 36 2
65 35 56 1
66 36 51 Ar
67 36 57 1
68 37 38 Ar
69 37 51 Ar
70 37 59 1
71 38 58 1
72 50 67 1
73 51 66 1
74 64 65 1
75 65 68 1
76 65 86 1
77 66 70 1
78 66 80 1
79 67 72 1
80 67 74 1
81 68 69 1
82 68 90 1
83 68 91 1
84 70 71 1
85 70 84 1
86 70 85 1
87 72 73 1
88 72 78 1
89 72 79 1
90 74 75 1
91 74 76 1
92 74 77 1
93 80 81 1
94 80 82 1
95 80 83 1
96 86 87 1
97 86 88 1
98 86 89 1
