# Ar3_Cu_NO2_OPT
# Created by GaussView 6.0.16
#

#
#

@<TRIPOS>MOLECULE
Molecule Name
103 113
SMALL
NO_CHARGES


@<TRIPOS>ATOM
1 C1    -3.2335    -0.9692    -0.0809 C
2 C2     0.4200     2.3266    -0.1147 C
3 C3     3.4905    -1.5172    -0.0505 C
4 C4    -0.7609    -3.5680    -0.1032 C
5 C5    -1.8593    -4.3955    -0.3929 C
6 C6    -2.9693    -3.5525    -0.4576 C
7 C7    -2.5539    -2.2034    -0.1700 C
8 N8    -1.2056    -2.2810     0.0934 N
9 C9    -2.5229     0.2530    -0.0255 C
10 C10    -3.0841     1.5260     0.3474 C
11 C11    -2.0752     2.4490     0.3259 C
12 C12    -0.8691     1.7600    -0.0468 C
13 N13    -1.1685     0.4306    -0.2829 N
14 C14     1.6071     1.5678    -0.1619 C
15 C15     2.9190     2.0533    -0.4809 C
16 C16     3.7681     0.9762    -0.4617 C
17 C17     2.9936    -0.1853    -0.1255 C
18 N18     1.6819     0.2044     0.0747 N
19 C19     2.6328    -2.6222    -0.0698 C
20 C20     2.8779    -4.0178     0.1745 C
21 C21     1.6556    -4.6668     0.1666 C
22 C22     0.6630    -3.6724    -0.0794 C
23 N23     1.2753    -2.4741    -0.2750 N
24 H24    -2.1336     3.4953     0.5882 H
25 H25     1.4708    -5.7195     0.3353 H
26 H26     3.8441    -4.4512     0.3920 H
27 H27     3.1562     3.0747    -0.7407 H
28 H28     4.8252     0.9700    -0.6855 H
29 Cu29     0.1522    -0.9423    -0.0972 Cu
30 N30    -4.2337    -4.0159    -0.9521 N
31 O31    -4.9428    -3.2365    -1.5935 O
32 O32    -4.5228    -5.2005    -0.7346 O
33 H33    -4.1140     1.6862     0.6294 H
34 C34    -4.7030    -0.9380     0.0665 C
35 C35    -5.3319    -1.7441     1.0296 C
36 C36    -5.5062    -0.1054    -0.7228 C
37 C37    -6.7101    -1.7108     1.1914 C
38 H38    -4.7293    -2.3897     1.6618 H
39 C39    -6.8903    -0.0852    -0.5608 C
40 H40    -5.0447     0.5087    -1.4898 H
41 C41    -7.5252    -0.8834     0.3999 C
42 H42    -7.1592    -2.3417     1.9521 H
43 H43    -7.4745     0.5618    -1.2046 H
44 C44     4.9510    -1.7347     0.0255 C
45 C45     5.5898    -2.6701    -0.8015 C
46 C46     5.7433    -1.0196     0.9415 C
47 C47     6.9649    -2.8840    -0.7145 C
48 H48     5.0072    -3.2177    -1.5353 H
49 C49     7.1118    -1.2437     1.0258 C
50 H50     5.2725    -0.3001     1.6040 H
51 C51     7.7585    -2.1811     0.2012 C
52 H52     7.4154    -3.6086    -1.3825 H
53 H53     7.6864    -0.6803     1.7547 H
54 C54     0.5321     3.8050    -0.1190 C
55 C55     1.3775     4.4723     0.7838 C
56 C56    -0.2054     4.5824    -1.0231 C
57 C57     1.4714     5.8589     0.7783 C
58 H58     1.9465     3.8953     1.5060 H
59 C59    -0.0955     5.9724    -1.0308 C
60 H60    -0.8573     4.0917    -1.7392 H
61 C61     0.7418     6.6446    -0.1307 C
62 H62     2.1223     6.3376     1.5035 H
63 H63    -0.6738     6.5295    -1.7585 H
64 C64     9.2716    -2.3976     0.3305 C
65 C65    -9.0443    -0.8852     0.6126 C
66 C66     0.8740     8.1725    -0.0965 C
67 C67     0.3765     8.6889     1.2711 C
68 H68     0.9569     8.2692     2.0994 H
69 H69     0.4634     9.7811     1.3204 H
70 H70    -0.6749     8.4242     1.4317 H
71 C71     2.3549     8.5672    -0.2831 C
72 H72     2.7383     8.2119    -1.2464 H
73 H73     2.4620     9.6582    -0.2569 H
74 H74     2.9923     8.1526     0.5047 H
75 C75     0.0516     8.8552    -1.2010 C
76 H76     0.3671     8.5356    -2.2007 H
77 H77    -1.0203     8.6527    -1.0987 H
78 H78     0.1881     9.9408    -1.1434 H
79 C79    -9.3552    -0.4725     2.0677 C
80 H80   -10.4384    -0.4694     2.2392 H
81 H81    -8.9064    -1.1615     2.7907 H
82 H82    -8.9745     0.5328     2.2815 H
83 C83    -9.5915    -2.3064     0.3568 C
84 H84    -9.1475    -3.0419     1.0357 H
85 H85   -10.6782    -2.3280     0.5052 H
86 H86    -9.3800    -2.6298    -0.6684 H
87 C87    -9.7678     0.0893    -0.3303 C
88 H88    -9.4369     1.1233    -0.1801 H
89 H89    -9.6136    -0.1709    -1.3835 H
90 H90   -10.8459     0.0570    -0.1370 H
91 C91    10.0032    -1.0678     0.0476 C
92 H92     9.7041    -0.2809     0.7477 H
93 H93    11.0875    -1.2026     0.1407 H
94 H94     9.7915    -0.7121    -0.9672 H
95 C95     9.5963    -2.8656     1.7659 C
96 H96     9.0853    -3.8074     1.9965 H
97 H97    10.6750    -3.0284     1.8785 H
98 H98     9.2909    -2.1272     2.5144 H
99 C99     9.7968    -3.4565    -0.6518 C
100 H100     9.3344    -4.4356    -0.4831 H
101 H101     9.6217    -3.1700    -1.6950 H
102 H102    10.8779    -3.5759    -0.5200 H
103 H103    -1.8529    -5.4561    -0.5966 H
@<TRIPOS>BOND
1 1 7 Ar
2 1 9 Ar
3 1 34 1
4 2 12 Ar
5 2 14 Ar
6 2 54 1
7 3 17 Ar
8 3 19 Ar
9 3 44 1
10 4 5 Ar
11 4 8 Ar
12 4 22 Ar
13 5 6 Ar
14 5 103 1
15 6 7 Ar
16 6 30 1
17 7 8 Ar
18 8 29 1
19 9 10 Ar
20 9 13 1
21 10 11 2
22 10 33 1
23 11 12 Ar
24 11 24 1
25 12 13 1
26 13 29 1
27 14 15 Ar
28 14 18 1
29 15 16 2
30 15 27 1
31 16 17 Ar
32 16 28 1
33 17 18 1
34 18 29 1
35 19 20 Ar
36 19 23 Ar
37 20 21 2
38 20 26 1
39 21 22 Ar
40 21 25 1
41 22 23 Ar
42 23 29 1
43 30 31 Ar
44 30 32 Ar
45 34 35 Ar
46 34 36 Ar
47 35 37 Ar
48 35 38 1
49 36 39 Ar
50 36 40 1
51 37 41 Ar
52 37 42 1
53 39 41 Ar
54 39 43 1
55 41 65 1
56 44 45 Ar
57 44 46 Ar
58 45 47 Ar
59 45 48 1
60 46 49 Ar
61 46 50 1
62 47 51 Ar
63 47 52 1
64 49 51 Ar
65 49 53 1
66 51 64 1
67 54 55 Ar
68 54 56 Ar
69 55 57 Ar
70 55 58 1
71 56 59 Ar
72 56 60 1
73 57 61 Ar
74 57 62 1
75 59 61 Ar
76 59 63 1
77 61 66 1
78 64 91 1
79 64 95 1
80 64 99 1
81 65 79 1
82 65 83 1
83 65 87 1
84 66 67 1
85 66 71 1
86 66 75 1
87 67 68 1
88 67 69 1
89 67 70 1
90 71 72 1
91 71 73 1
92 71 74 1
93 75 76 1
94 75 77 1
95 75 78 1
96 79 80 1
97 79 81 1
98 79 82 1
99 83 84 1
100 83 85 1
101 83 86 1
102 87 88 1
103 87 89 1
104 87 90 1
105 91 92 1
106 91 93 1
107 91 94 1
108 95 96 1
109 95 97 1
110 95 98 1
111 99 100 1
112 99 101 1
113 99 102 1
