# Ar3_Cu_OPT
# Created by GaussView 6.0.16
#

#
#

@<TRIPOS>MOLECULE
Molecule Name
105 115
SMALL
NO_CHARGES


@<TRIPOS>ATOM
1 C1    -3.2129    -0.8606    -0.0459 C
2 C2     0.4588     2.4234    -0.1011 C
3 C3     3.5109    -1.4376     0.0114 C
4 C4    -0.7496    -3.4503    -0.0128 C
5 C5    -1.8473    -4.3020    -0.3320 C
6 C6    -2.9767    -3.4494    -0.4179 C
7 C7    -2.5498    -2.0932    -0.1226 C
8 N8    -1.2029    -2.1743     0.1660 N
9 C9    -2.4869     0.3664     0.0206 C
10 C10    -3.0408     1.6402     0.3970 C
11 C11    -2.0300     2.5638     0.3553 C
12 C12    -0.8313     1.8707    -0.0237 C
13 N13    -1.1436     0.5352    -0.2488 N
14 C14     1.6448     1.6547    -0.1549 C
15 C15     2.9526     2.1248    -0.5041 C
16 C16     3.7988     1.0436    -0.4658 C
17 C17     3.0231    -0.1036    -0.0936 C
18 N18     1.7134     0.2989     0.1122 N
19 C19     2.6438    -2.5365     0.0180 C
20 C20     2.8730    -3.9225     0.3248 C
21 C21     1.6459    -4.5628     0.3216 C
22 C22     0.6657    -3.5708     0.0167 C
23 N23     1.2921    -2.3830    -0.2224 N
24 H24    -2.0842     3.6112     0.6146 H
25 H25     1.4504    -5.6018     0.5540 H
26 H26     3.8308    -4.3535     0.5808 H
27 H27     3.1931     3.1393    -0.7876 H
28 H28     4.8522     1.0261    -0.7057 H
29 Cu29     0.1735    -0.8408    -0.0517 Cu
30 N30    -4.1772    -3.8813    -1.0196 N
31 O31    -4.9445    -3.0594    -1.5294 O
32 O32    -4.4003    -5.1167    -1.0399 O
33 N33    -1.7867    -5.6419    -0.5145 N
34 H34    -0.9018    -6.0445    -0.7942 H
35 H35    -2.6368    -6.0734    -0.8603 H
36 H36    -4.0687     1.8064     0.6830 H
37 C37    -4.6847    -0.7982     0.0877 C
38 C38    -5.3378    -1.5827     1.0515 C
39 C39    -5.4642     0.0533    -0.7044 C
40 C40    -6.7154    -1.5120     1.2111 C
41 H41    -4.7539    -2.2438     1.6854 H
42 C42    -6.8478     0.1116    -0.5458 C
43 H43    -4.9854     0.6556    -1.4703 H
44 C44    -7.5066    -0.6657     0.4157 C
45 H45    -7.1821    -2.1286     1.9733 H
46 H46    -7.4126     0.7730    -1.1927 H
47 C47     4.9694    -1.6636     0.0905 C
48 C48     5.5963    -2.6396    -0.7050 C
49 C49     5.7744    -0.9188     0.9657 C
50 C50     6.9674    -2.8507    -0.6247 C
51 H51     5.0026    -3.2146    -1.4083 H
52 C52     7.1482    -1.1412     1.0439 C
53 H53     5.3153    -0.1709     1.6044 H
54 C54     7.7792    -2.1083     0.2500 C
55 H55     7.4145    -3.6037    -1.2665 H
56 H56     7.7262    -0.5476     1.7425 H
57 C57     0.5849     3.9004    -0.1203 C
58 C58     1.4519     4.5680     0.7618 C
59 C59    -0.1579     4.6764    -1.0213 C
60 C60     1.5605     5.9531     0.7400 C
61 H61     2.0271     3.9924     1.4801 H
62 C62    -0.0325     6.0650    -1.0462 C
63 H63    -0.8253     4.1847    -1.7221 H
64 C64     0.8262     6.7372    -0.1668 C
65 H65     2.2284     6.4324     1.4493 H
66 H66    -0.6151     6.6207    -1.7718 H
67 C67     9.2899    -2.3711     0.2968 C
68 C68    -9.0254    -0.6211     0.6275 C
69 C69     0.9814     8.2633    -0.1553 C
70 C70     0.5208     8.8057     1.2150 C
71 H71     1.1091     8.3848     2.0371 H
72 H72     0.6297     9.8965     1.2491 H
73 H73    -0.5323     8.5635     1.3989 H
74 C74     2.4641     8.6313    -0.3784 C
75 H75     2.8215     8.2546    -1.3436 H
76 H76     2.5891     9.7207    -0.3715 H
77 H77     3.1110     8.2184     0.4025 H
78 C78     0.1463     8.9442    -1.2513 C
79 H79     0.4389     8.6103    -2.2533 H
80 H80    -0.9256     8.7553    -1.1261 H
81 H81     0.2967    10.0287    -1.2077 H
82 C82    -9.3237    -0.1514     2.0681 C
83 H83   -10.4059    -0.1239     2.2449 H
84 H84    -8.8813    -0.8205     2.8134 H
85 H85    -8.9255     0.8546     2.2442 H
86 C86    -9.6124    -2.0337     0.4183 C
87 H87    -9.1919    -2.7590     1.1226 H
88 H88   -10.6996    -2.0193     0.5638 H
89 H89    -9.4076    -2.3964    -0.5951 H
90 C90    -9.7232     0.3400    -0.3482 C
91 H91    -9.3694     1.3705    -0.2297 H
92 H92    -9.5702     0.0429    -1.3918 H
93 H93   -10.8025     0.3385    -0.1586 H
94 C94    10.0097    -1.4650     1.3082 C
95 H95     9.6412    -1.6180     2.3288 H
96 H96    11.0817    -1.6916     1.3076 H
97 H97     9.8971    -0.4039     1.0583 H
98 C98     9.5412    -3.8412     0.6967 C
99 H99     9.0896    -4.5400    -0.0152 H
100 H100    10.6177    -4.0479     0.7284 H
101 H101     9.1251    -4.0562     1.6875 H
102 C102     9.8934    -2.1120    -1.1009 C
103 H103     9.4560    -2.7669    -1.8616 H
104 H104     9.7253    -1.0755    -1.4148 H
105 H105    10.9751    -2.2925    -1.0874 H
@<TRIPOS>BOND
1 1 7 Ar
2 1 9 Ar
3 1 37 1
4 2 12 Ar
5 2 14 Ar
6 2 57 1
7 3 17 Ar
8 3 19 Ar
9 3 47 1
10 4 5 Ar
11 4 8 Ar
12 4 22 Ar
13 5 6 Ar
14 5 33 Ar
15 6 7 1
16 6 30 1
17 7 8 Ar
18 8 29 1
19 9 10 Ar
20 9 13 Ar
21 10 11 2
22 10 36 1
23 11 12 Ar
24 11 24 1
25 12 13 1
26 13 29 1
27 14 15 Ar
28 14 18 1
29 15 16 2
30 15 27 1
31 16 17 Ar
32 16 28 1
33 17 18 1
34 18 29 1
35 19 20 Ar
36 19 23 Ar
37 20 21 2
38 20 26 1
39 21 22 Ar
40 21 25 1
41 22 23 Ar
42 23 29 1
43 30 31 Ar
44 30 32 Ar
45 33 34 1
46 33 35 1
47 37 38 Ar
48 37 39 Ar
49 38 40 Ar
50 38 41 1
51 39 42 Ar
52 39 43 1
53 40 44 Ar
54 40 45 1
55 42 44 Ar
56 42 46 1
57 44 68 1
58 47 48 Ar
59 47 49 Ar
60 48 50 Ar
61 48 51 1
62 49 52 Ar
63 49 53 1
64 50 54 Ar
65 50 55 1
66 52 54 Ar
67 52 56 1
68 54 67 1
69 57 58 Ar
70 57 59 Ar
71 58 60 Ar
72 58 61 1
73 59 62 Ar
74 59 63 1
75 60 64 Ar
76 60 65 1
77 62 64 Ar
78 62 66 1
79 64 69 1
80 67 94 1
81 67 98 1
82 67 102 1
83 68 82 1
84 68 86 1
85 68 90 1
86 69 70 1
87 69 74 1
88 69 78 1
89 70 71 1
90 70 72 1
91 70 73 1
92 74 75 1
93 74 76 1
94 74 77 1
95 78 79 1
96 78 80 1
97 78 81 1
98 82 83 1
99 82 84 1
100 82 85 1
101 86 87 1
102 86 88 1
103 86 89 1
104 90 91 1
105 90 92 1
106 90 93 1
107 94 95 1
108 94 96 1
109 94 97 1
110 98 99 1
111 98 100 1
112 98 101 1
113 102 103 1
114 102 104 1
115 102 105 1
