# Cu_F11_OPT2
# Created by GaussView 6.0.16
#

#
#

@<TRIPOS>MOLECULE
Molecule Name
109 119
SMALL
NO_CHARGES


@<TRIPOS>ATOM
1 C1     3.3679    -0.8248     0.0939 C
2 C2     0.0019     2.7716     0.0018 C
3 C3    -3.3745    -0.8152    -0.0881 C
4 C4     0.7020    -3.2011    -0.0003 C
5 C5     1.7421    -4.1574     0.1976 C
6 C6     2.9193    -3.3972     0.3590 C
7 C7     2.6037    -1.9983     0.1414 C
8 N8     1.2550    -1.9596    -0.1438 N
9 C9     2.7549     0.4586     0.0055 C
10 C10     3.4356     1.6694    -0.3602 C
11 C11     2.5090     2.6798    -0.3778 C
12 C12     1.2421     2.1032    -0.0347 C
13 N13     1.4211     0.7515     0.2217 N
14 C14    -1.2400     2.1065     0.0411 C
15 C15    -2.5052     2.6869     0.3838 C
16 C16    -3.4348     1.6792     0.3672 C
17 C17    -2.7577     0.4663     0.0021 C
18 N18    -1.4229     0.7551    -0.2135 N
19 C19    -2.6136    -1.9908    -0.1363 C
20 C20    -2.9329    -3.3884    -0.3569 C
21 C21    -1.7580    -4.1522    -0.1961 C
22 C22    -0.7154    -3.1991     0.0045 C
23 N23    -1.2650    -1.9563     0.1501 N
24 H24     2.6672     3.7134    -0.6489 H
25 H25    -2.6602     3.7213     0.6537 H
26 H26    -4.4842     1.7495     0.6120 H
27 Cu27    -0.0028    -0.5150     0.0038 Cu
28 N28     4.1191    -3.9713     0.8519 N
29 O29     4.9200    -3.2715     1.4727 O
30 O30     4.2938    -5.1954     0.6581 O
31 N31     1.5862    -5.5176     0.2669 N
32 H32     0.9054    -5.9015    -0.3786 H
33 H33     2.4745    -6.0107     0.2602 H
34 H34     4.4852     1.7365    -0.6049 H
35 C35     4.8441    -0.8843     0.0155 C
36 C36     5.4682    -1.6700    -0.9660 C
37 C37     5.6556    -0.1532     0.8909 C
38 C38     6.8529    -1.7282    -1.0525 C
39 H39     4.8581    -2.2313    -1.6680 H
40 C40     7.0446    -0.2297     0.8081 C
41 H41     5.1954     0.4566     1.6623 H
42 C42     7.6766    -1.0202    -0.1607 C
43 H43     7.3005    -2.3425    -1.8278 H
44 H44     7.6345     0.3336     1.5216 H
45 C45    -4.8510    -0.8699    -0.0128 C
46 C46    -5.4802    -1.6554     0.9656 C
47 C47    -5.6580    -0.1342    -0.8886 C
48 C48    -6.8653    -1.7086     1.0490 C
49 H49    -4.8737    -2.2203     1.6678 H
50 C50    -7.0474    -0.2058    -0.8090 C
51 H51    -5.1939     0.4754    -1.6578 H
52 C52    -7.6845    -0.9959     0.1567 C
53 H53    -7.3168    -2.3229     1.8219 H
54 H54    -7.6336     0.3610    -1.5229 H
55 C55     0.0029     4.2529    -0.0054 C
56 C56    -0.8037     4.9717    -0.8995 C
57 C57     0.8128     4.9838     0.8815 C
58 C58    -0.7952     6.3655    -0.9125 C
59 H59    -1.4275     4.4327    -1.6055 H
60 C60     0.8049     6.3732     0.8708 C
61 H61     1.4352     4.4535     1.5953 H
62 C62     0.0058     7.1006    -0.0285 C
63 H63    -1.4240     6.8753    -1.6330 H
64 H64     1.4317     6.9003     1.5836 H
65 C65    -9.2106    -1.1068     0.2681 C
66 C66     9.2020    -1.1365    -0.2759 C
67 C67     0.0285     8.6341    -0.0039 C
68 C68    -0.8623     9.2483    -1.0956 C
69 H69    -1.9148     8.9714    -0.9688 H
70 H70    -0.8024    10.3412    -1.0478 H
71 H71    -0.5455     8.9435    -2.0995 H
72 C72    -0.4786     9.1232     1.3702 C
73 H73     0.1474     8.7548     2.1896 H
74 H74    -0.4714    10.2192     1.4094 H
75 H75    -1.5044     8.7832     1.5532 H
76 C76     1.4737     9.1324    -0.2219 C
77 H77     2.1546     8.7698     0.5551 H
78 H78     1.8631     8.7994    -1.1907 H
79 H79     1.5033    10.2285    -0.2031 H
80 C80     9.6487    -0.6089    -1.6565 C
81 H81    10.7371    -0.6925    -1.7638 H
82 H82     9.1888    -1.1723    -2.4751 H
83 H83     9.3752     0.4453    -1.7814 H
84 C84     9.6125    -2.6186    -0.1370 C
85 H85     9.1638    -3.2414    -0.9176 H
86 H86    10.7019    -2.7198    -0.2141 H
87 H87     9.2999    -3.0229     0.8322 H
88 C88     9.9331    -0.3316     0.8106 C
89 H89     9.7149     0.7403     0.7439 H
90 H90     9.6685    -0.6729     1.8176 H
91 H91    11.0157    -0.4548     0.6945 H
92 C92    -9.9360    -0.2971    -0.8186 C
93 H93    -9.6699    -0.6372    -1.8256 H
94 H94   -11.0194    -0.4168    -0.7057 H
95 H95    -9.7143     0.7739    -0.7490 H
96 C96    -9.6260    -2.5872     0.1251 C
97 H97    -9.1816    -3.2132     0.9055 H
98 H98   -10.7160    -2.6845     0.1992 H
99 H99    -9.3125    -2.9905    -0.8441 H
100 C100    -9.6588    -0.5804     1.6486 C
101 H101    -9.2035    -1.1476     2.4673 H
102 H102    -9.3812     0.4723     1.7766 H
103 H103   -10.7478    -0.6597     1.7528 H
104 N104    -1.6057    -5.5125    -0.2681 N
105 H105    -0.9253    -5.8999     0.3757 H
106 H106    -2.4951    -6.0036    -0.2630 H
107 N107    -4.1335    -3.9583    -0.8526 N
108 O108    -4.9319    -3.2551    -1.4729 O
109 O109    -4.3115    -5.1825    -0.6621 O
@<TRIPOS>BOND
1 1 7 Ar
2 1 9 Ar
3 1 35 1
4 2 12 Ar
5 2 14 Ar
6 2 55 1
7 3 17 Ar
8 3 19 Ar
9 3 45 1
10 4 5 Ar
11 4 8 Ar
12 4 22 Ar
13 5 6 Ar
14 5 31 Ar
15 6 7 1
16 6 28 1
17 7 8 Ar
18 8 27 1
19 9 10 Ar
20 9 13 1
21 10 11 2
22 10 34 1
23 11 12 Ar
24 11 24 1
25 12 13 1
26 13 27 1
27 14 15 Ar
28 14 18 1
29 15 16 2
30 15 25 1
31 16 17 Ar
32 16 26 1
33 17 18 1
34 18 27 1
35 19 20 1
36 19 23 Ar
37 20 21 Ar
38 20 107 1
39 21 22 Ar
40 21 104 Ar
41 22 23 Ar
42 23 27 1
43 28 29 Ar
44 28 30 Ar
45 31 32 1
46 31 33 1
47 35 36 Ar
48 35 37 Ar
49 36 38 Ar
50 36 39 1
51 37 40 Ar
52 37 41 1
53 38 42 Ar
54 38 43 1
55 40 42 Ar
56 40 44 1
57 42 66 1
58 45 46 Ar
59 45 47 Ar
60 46 48 Ar
61 46 49 1
62 47 50 Ar
63 47 51 1
64 48 52 Ar
65 48 53 1
66 50 52 Ar
67 50 54 1
68 52 65 1
69 55 56 Ar
70 55 57 Ar
71 56 58 Ar
72 56 59 1
73 57 60 Ar
74 57 61 1
75 58 62 Ar
76 58 63 1
77 60 62 Ar
78 60 64 1
79 62 67 1
80 65 92 1
81 65 96 1
82 65 100 1
83 66 80 1
84 66 84 1
85 66 88 1
86 67 68 1
87 67 72 1
88 67 76 1
89 68 69 1
90 68 70 1
91 68 71 1
92 72 73 1
93 72 74 1
94 72 75 1
95 76 77 1
96 76 78 1
97 76 79 1
98 80 81 1
99 80 82 1
100 80 83 1
101 84 85 1
102 84 86 1
103 84 87 1
104 88 89 1
105 88 90 1
106 88 91 1
107 92 93 1
108 92 94 1
109 92 95 1
110 96 97 1
111 96 98 1
112 96 99 1
113 100 101 1
114 100 102 1
115 100 103 1
116 104 105 1
117 104 106 1
118 107 108 Ar
119 107 109 Ar
