# Ca_C12_OPT
# Created by GaussView 6.0.16
#

#
#

@<TRIPOS>MOLECULE
Molecule Name
62 72
SMALL
NO_CHARGES


@<TRIPOS>ATOM
1 C1     3.3496    -1.0609    -0.1649 C
2 C2     0.0251     2.5612    -0.1728 C
3 C3    -3.3838    -0.9838    -0.1443 C
4 C4     0.6847    -3.3782    -0.2652 C
5 C5     1.6965    -4.2932     0.1910 C
6 C6     2.8914    -3.5983     0.1758 C
7 C7     2.5889    -2.2454    -0.2541 C
8 N8     1.2570    -2.1973    -0.5784 N
9 C9     2.8050     0.2745    -0.2295 C
10 C10     3.4889     1.4781     0.1813 C
11 C11     2.5620     2.4935     0.1844 C
12 C12     1.3014     1.9150    -0.2200 C
13 N13     1.4967     0.5830    -0.4974 N
14 C14    -1.2656     1.9458    -0.2132 C
15 C15    -2.5428     2.5786     0.0277 C
16 C16    -3.4896     1.5812     0.0400 C
17 C17    -2.8054     0.3367    -0.2216 C
18 N18    -1.4718     0.5992    -0.4004 N
19 C19    -2.6496    -2.1869    -0.2122 C
20 C20    -2.9756    -3.5286     0.2329 C
21 C21    -1.7961    -4.2506     0.2329 C
22 C22    -0.7714    -3.3623    -0.2477 C
23 N23    -1.3224    -2.1711    -0.5557 N
24 C24    -7.1438    -0.6494    -0.4071 C
25 C25    -5.7915    -0.5490    -0.7272 C
26 C26    -4.8369    -1.0623     0.1627 C
27 C27    -5.3144    -1.6436     1.3455 C
28 C28    -6.6890    -1.6936     1.5706 C
29 N29    -7.6035    -1.2113     0.7189 N
30 C30     0.7211     6.2575    -0.6011 C
31 C31     0.6951     4.8876    -0.8547 C
32 C32     0.0637     4.0324     0.0597 C
33 C33    -0.4980     4.6225     1.2007 C
34 C34    -0.4146     6.0042     1.3622 C
35 N35     0.1785     6.8244     0.4844 N
36 C36     6.5859    -1.8737     1.6337 C
37 C37     5.2206    -1.7969     1.3646 C
38 C38     4.7908    -1.1741     0.1842 C
39 C39     5.7813    -0.6458    -0.6562 C
40 C40     7.1208    -0.7767    -0.2949 C
41 N41     7.5348    -1.3802     0.8271 N
42 H42     1.5424    -5.3151     0.5135 H
43 H43     3.8595    -3.9734     0.4777 H
44 H44     4.5233     1.5455     0.4876 H
45 H45     2.7222     3.5162     0.4952 H
46 H46    -2.7133     3.6312     0.2014 H
47 H47    -4.5450     1.6954     0.2439 H
48 H48    -3.9462    -3.8789     0.5562 H
49 H49    -1.6602    -5.2737     0.5598 H
50 H50    -7.8954    -0.2600    -1.0916 H
51 H51    -5.4820    -0.0855    -1.6585 H
52 H52    -4.6223    -2.0329     2.0840 H
53 H53    -7.0739    -2.1391     2.4862 H
54 H54     1.2025     6.9329    -1.3062 H
55 H55     1.1549     4.4883    -1.7529 H
56 H56    -0.9778     4.0104     1.9565 H
57 H57    -0.8427     6.4745     2.2455 H
58 H58     6.9336    -2.3507     2.5483 H
59 H59     4.4989    -2.1959     2.0687 H
60 H60     5.5099    -0.1458    -1.5804 H
61 H61     7.9003    -0.3773    -0.9413 H
62 Ca62    -0.0300    -0.6443    -1.7082 Ca
@<TRIPOS>BOND
1 1 7 Ar
2 1 9 Ar
3 1 38 1
4 2 12 Ar
5 2 14 Ar
6 2 32 1
7 3 17 Ar
8 3 19 Ar
9 3 26 1
10 4 5 Ar
11 4 8 Ar
12 4 22 1
13 5 6 2
14 5 42 1
15 6 7 1
16 6 43 1
17 7 8 Ar
18 8 62 1
19 9 10 Ar
20 9 13 Ar
21 10 11 2
22 10 44 1
23 11 12 Ar
24 11 45 1
25 12 13 Ar
26 13 62 1
27 14 15 Ar
28 14 18 Ar
29 15 16 2
30 15 46 1
31 16 17 Ar
32 16 47 1
33 17 18 Ar
34 18 62 1
35 19 20 1
36 19 23 Ar
37 20 21 2
38 20 48 1
39 21 22 Ar
40 21 49 1
41 22 23 Ar
42 23 62 1
43 24 25 Ar
44 24 29 Ar
45 24 50 1
46 25 26 Ar
47 25 51 1
48 26 27 Ar
49 27 28 Ar
50 27 52 1
51 28 29 Ar
52 28 53 1
53 30 31 Ar
54 30 35 Ar
55 30 54 1
56 31 32 Ar
57 31 55 1
58 32 33 Ar
59 33 34 Ar
60 33 56 1
61 34 35 Ar
62 34 57 1
63 36 37 Ar
64 36 41 Ar
65 36 58 1
66 37 38 Ar
67 37 59 1
68 38 39 Ar
69 39 40 Ar
70 39 60 1
71 40 41 Ar
72 40 61 1
