# Co_2py_2_6_F2_TD
# Created by GaussView 6.0.16
#

#
#

@<TRIPOS>MOLECULE
Molecule Name
85 95
SMALL
NO_CHARGES


@<TRIPOS>ATOM
1 C1    -3.3395     0.8074     0.0586 C
2 C2     0.0000    -2.7634    -0.0001 C
3 C3     3.3395     0.8074    -0.0585 C
4 C4    -0.7203     3.1685     0.0097 C
5 C5    -1.8136     4.1098     0.0011 C
6 C6    -2.9733     3.3709     0.0121 C
7 C7    -2.5952     1.9746     0.0341 C
8 N8    -1.2164     1.9205     0.0275 N
9 C9    -2.7563    -0.4977     0.0745 C
10 C10    -3.4728    -1.7465     0.1363 C
11 C11    -2.5448    -2.7522     0.1212 C
12 C12    -1.2521    -2.1252     0.0523 C
13 N13    -1.4142    -0.7566     0.0345 N
14 C14     1.2522    -2.1251    -0.0524 C
15 C15     2.5448    -2.7521    -0.1214 C
16 C16     3.4728    -1.7465    -0.1365 C
17 C17     2.7563    -0.4977    -0.0746 C
18 N18     1.4142    -0.7566    -0.0347 N
19 C19     2.5953     1.9746    -0.0336 C
20 C20     2.9733     3.3710    -0.0113 C
21 C21     1.8136     4.1099    -0.0000 C
22 C22     0.7204     3.1685    -0.0088 C
23 N23     1.2165     1.9205    -0.0270 N
24 C24     4.8206     0.9137    -0.0691 C
25 C25     5.4975     1.5285    -1.1267 C
26 C26     6.8839     1.6432    -1.1404 C
27 C27     7.6261     1.1360    -0.0779 C
28 C28     6.9796     0.5188     0.9896 C
29 C29     5.5930     0.4158     0.9850 C
30 F30     4.8151     2.0171    -2.1705 F
31 F31     7.5059     2.2310    -2.1680 F
32 F32     8.9565     1.2412    -0.0822 F
33 F33     7.6931     0.0382     2.0133 F
34 F34     4.9989    -0.1717     2.0316 F
35 C35     0.0000    -4.2505    -0.0001 C
36 C36     0.4432    -4.9871     1.1009 C
37 C37     0.4513    -6.3747     1.1269 C
38 C38     0.0000    -7.0634    -0.0003 C
39 C39    -0.4512    -6.3746    -1.1273 C
40 C40    -0.4431    -4.9870    -1.1012 C
41 F41     0.8703    -4.3085     2.1860 F
42 F42    -0.8702    -4.3083    -2.1862 F
43 C43    -4.8205     0.9137     0.0691 C
44 C44    -5.5928     0.4159    -0.9852 C
45 C45    -6.9794     0.5188    -0.9900 C
46 C46    -7.6261     1.1359     0.0775 C
47 C47    -6.8841     1.6429     1.1401 C
48 C48    -5.4977     1.5283     1.1266 C
49 F49    -4.9985    -0.1714    -2.0319 F
50 F50    -7.6927     0.0384    -2.0139 F
51 F51    -8.9564     1.2410     0.0816 F
52 F52    -7.5062     2.2306     2.1677 F
53 F53    -4.8154     2.0169     2.1706 F
54 H54     3.9859     3.7487    -0.0025 H
55 H55     1.7227     5.1875     0.0166 H
56 H56    -1.7227     5.1875    -0.0151 H
57 H57    -3.9859     3.7487     0.0033 H
58 H58     4.5466    -1.8490    -0.1980 H
59 H59     2.7257    -3.8164    -0.1639 H
60 H60    -2.7256    -3.8164     0.1638 H
61 H61    -4.5466    -1.8490     0.1978 H
62 H62    -0.8013    -6.8900    -2.0144 H
63 H63     0.0000    -8.1486    -0.0003 H
64 H64     0.8014    -6.8902     2.0139 H
65 Co65     0.0000     0.5052     0.0001 Co
66 C66     0.0607     0.4814     2.0525 C
67 C67     0.0246     1.6564     2.7963 C
68 C68     0.1453    -0.7156     2.7592 C
69 C69     0.0711     1.5860     4.1930 C
70 H70    -0.0383     2.6360     2.3349 H
71 C71     0.1894    -0.6821     4.1570 C
72 H72     0.1868    -1.6829     2.2739 H
73 N73     0.1527     0.4422     4.8786 N
74 H74     0.0398     2.5041     4.7792 H
75 H75     0.2607    -1.6165     4.7130 H
76 C76    -0.0608     0.4819    -2.0523 C
77 C77    -0.1448    -0.7150    -2.7592 C
78 C78    -0.0254     1.6571    -2.7958 C
79 C79    -0.1891    -0.6813    -4.1571 C
80 H80    -0.1858    -1.6824    -2.2742 H
81 C81    -0.0720     1.5870    -4.1925 C
82 H82     0.0372     2.6366    -2.3343 H
83 N83    -0.1532     0.4432    -4.8784 N
84 H84    -0.2599    -1.6156    -4.7132 H
85 H85    -0.0414     2.5052    -4.7785 H
@<TRIPOS>BOND
1 1 7 2
2 1 9 Ar
3 1 43 1
4 2 12 Ar
5 2 14 Ar
6 2 35 1
7 3 17 Ar
8 3 19 2
9 3 24 1
10 4 5 Ar
11 4 8 Ar
12 4 22 Ar
13 5 6 2
14 5 56 1
15 6 7 Ar
16 6 57 1
17 7 8 Ar
18 8 65 1
19 9 10 Ar
20 9 13 Ar
21 10 11 2
22 10 61 1
23 11 12 Ar
24 11 60 1
25 12 13 Ar
26 13 65 1
27 14 15 Ar
28 14 18 Ar
29 15 16 2
30 15 59 1
31 16 17 Ar
32 16 58 1
33 17 18 Ar
34 18 65 1
35 19 20 Ar
36 19 23 Ar
37 20 21 2
38 20 54 1
39 21 22 Ar
40 21 55 1
41 22 23 Ar
42 23 65 1
43 24 25 Ar
44 24 29 Ar
45 25 26 Ar
46 25 30 1
47 26 27 Ar
48 26 31 1
49 27 28 Ar
50 27 32 1
51 28 29 Ar
52 28 33 1
53 29 34 1
54 35 36 Ar
55 35 40 Ar
56 36 37 Ar
57 36 41 1
58 37 38 Ar
59 37 64 1
60 38 39 Ar
61 38 63 1
62 39 40 Ar
63 39 62 1
64 40 42 1
65 43 44 Ar
66 43 48 Ar
67 44 45 Ar
68 44 49 1
69 45 46 Ar
70 45 50 1
71 46 47 Ar
72 46 51 1
73 47 48 Ar
74 47 52 1
75 48 53 1
76 66 67 Ar
77 66 68 Ar
78 67 69 Ar
79 67 70 1
80 68 71 Ar
81 68 72 1
82 69 73 Ar
83 69 74 1
84 71 73 Ar
85 71 75 1
86 76 77 Ar
87 76 78 Ar
88 77 79 Ar
89 77 80 1
90 78 81 Ar
91 78 82 1
92 79 83 Ar
93 79 84 1
94 81 83 Ar
95 81 85 1
