# Co_F10_P_OPT
# Created by GaussView 6.0.16
#

#
#

@<TRIPOS>MOLECULE
Molecule Name
101 114
SMALL
NO_CHARGES


@<TRIPOS>ATOM
1 C1     3.3331    -0.8048    -1.0288 C
2 C2    -0.0123     2.7709    -0.7600 C
3 C3    -3.3566    -0.8023    -1.0362 C
4 C4     0.6913    -3.1793    -1.1677 C
5 C5     1.7752    -4.0937    -1.3276 C
6 C6     2.9424    -3.3534    -1.2560 C
7 C7     2.5723    -1.9784    -1.0547 C
8 N8     1.2055    -1.9217    -0.9832 N
9 C9     2.7484     0.4779    -0.9754 C
10 C10     3.4565     1.7263    -0.9112 C
11 C11     2.5324     2.7300    -0.7993 C
12 C12     1.2303     2.1197    -0.8215 C
13 N13     1.3850     0.7436    -0.9221 N
14 C14    -1.2493     2.1123    -0.8572 C
15 C15    -2.5412     2.7320    -0.9735 C
16 C16    -3.4667     1.7295    -1.0747 C
17 C17    -2.7654     0.4768    -1.0151 C
18 N18    -1.4044     0.7392    -0.9046 N
19 C19    -2.5985    -1.9780    -1.0521 C
20 C20    -2.9711    -3.3601    -1.1887 C
21 C21    -1.8049    -4.0985    -1.2680 C
22 C22    -0.7206    -3.1769    -1.1658 C
23 N23    -1.2299    -1.9131    -1.0229 N
24 C24    -4.8382    -0.9041    -1.0631 C
25 C25    -5.5164    -1.4780    -2.1437 C
26 C26    -6.9026    -1.5949    -2.1716 C
27 C27    -7.6559    -1.1210    -1.1028 C
28 C28    -7.0151    -0.5399    -0.0133 C
29 C29    -5.6284    -0.4447    -0.0046 C
30 C30    -0.0304     4.2471    -0.5711 C
31 C31    -0.6569     4.7920     0.5617 C
32 C32    -0.6725     6.1676     0.7637 C
33 C33    -0.0643     7.0256    -0.1619 C
34 C34     0.5565     6.4875    -1.2996 C
35 C35     0.5721     5.1144    -1.5010 C
36 C36     4.8105    -0.9255    -1.0565 C
37 C37     5.5892    -0.3673    -2.0762 C
38 C38     6.9757    -0.4759    -2.0936 C
39 C39     7.6243    -1.1773    -1.0823 C
40 C40     6.8800    -1.7583    -0.0612 C
41 C41     5.4952    -1.6306    -0.0600 C
42 H42    -3.9831    -3.7366    -1.2445 H
43 H43    -1.7179    -5.1694    -1.3965 H
44 H44     1.6873    -5.1577    -1.5045 H
45 H45     3.9528    -3.7220    -1.3682 H
46 H46    -4.5345     1.8369    -1.2059 H
47 H47    -2.7196     3.7969    -1.0064 H
48 H48     2.7255     3.7894    -0.7178 H
49 H49     4.5317     1.8340    -0.9251 H
50 Co50    -0.0100    -0.5207    -0.7007 Co
51 P51     0.0343    -0.6032     1.4963 P
52 C52    -0.7857    -2.1144     2.1185 C
53 C53    -0.1809    -3.3536     1.8490 C
54 C54    -1.9980    -2.0885     2.8210 C
55 C55    -0.7765    -4.5377     2.2759 C
56 H56     0.7601    -3.3952     1.3158 H
57 C57    -2.5959    -3.2785     3.2348 C
58 H58    -2.4790    -1.1481     3.0570 H
59 C59    -1.9900    -4.5048     2.9633 C
60 H60    -0.2923    -5.4857     2.0604 H
61 H61    -3.5365    -3.2415     3.7768 H
62 H62    -2.4584    -5.4292     3.2887 H
63 C63    -0.8053     0.8039     2.3227 C
64 C64    -0.1523     1.6366     3.2425 C
65 C65    -2.1635     1.0288     2.0539 C
66 C66    -0.8430     2.6795     3.8617 C
67 H67     0.8896     1.4779     3.4876 H
68 C68    -2.8527     2.0632     2.6795 C
69 H69    -2.6923     0.3946     1.3590 H
70 C70    -2.1923     2.8976     3.5835 C
71 H71    -0.3199     3.3182     4.5676 H
72 H72    -3.9025     2.2137     2.4484 H
73 H73    -2.7261     3.7093     4.0696 H
74 C74     1.7089    -0.6139     2.2371 C
75 C75     2.1576    -1.6292     3.0945 C
76 C76     2.5438     0.4899     2.0036 C
77 C77     3.4211    -1.5515     3.6787 C
78 H78     1.5251    -2.4767     3.3239 H
79 C79     3.8036     0.5656     2.5929 C
80 H80     2.2018     1.3107     1.3889 H
81 C81     4.2505    -0.4594     3.4260 C
82 H82     3.7539    -2.3499     4.3355 H
83 H83     4.4316     1.4290     2.3936 H
84 H84     5.2363    -0.4065     3.8789 H
85 F85    -4.8330    -1.9317    -3.2037 F
86 F86    -7.5158    -2.1463    -3.2263 F
87 F87    -8.9884    -1.2232    -1.1217 F
88 F88    -7.7338    -0.0897     1.0238 F
89 F89    -5.0543     0.1050     1.0821 F
90 F90     5.0050     0.2982    -3.0834 F
91 F91     7.6876     0.0735    -3.0862 F
92 F92     8.9564    -1.2924    -1.0921 F
93 F93     7.5002    -2.4315     0.9177 F
94 F94     4.8210    -2.2043     0.9469 F
95 H95     1.0395     4.6978    -2.3875 H
96 H96    -1.1183     4.1262     1.2827 H
97 H97    -1.1517     6.5831     1.6474 H
98 H98     1.0132     7.1635    -2.0156 H
99 C99    -0.0875     8.4821     0.0649 C
100 O100     0.4087     9.3120    -0.6772 O
101 H101    -0.6083     8.7971     0.9956 H
@<TRIPOS>BOND
1 1 7 Ar
2 1 9 Ar
3 1 36 1
4 2 12 Ar
5 2 14 Ar
6 2 30 1
7 3 17 Ar
8 3 19 Ar
9 3 24 1
10 4 5 Ar
11 4 8 Ar
12 4 22 Ar
13 5 6 2
14 5 44 1
15 6 7 Ar
16 6 45 1
17 7 8 Ar
18 8 50 1
19 9 10 Ar
20 9 13 1
21 10 11 2
22 10 49 1
23 11 12 Ar
24 11 48 1
25 12 13 1
26 13 50 1
27 14 15 Ar
28 14 18 1
29 15 16 2
30 15 47 1
31 16 17 Ar
32 16 46 1
33 17 18 1
34 18 50 1
35 19 20 Ar
36 19 23 Ar
37 20 21 2
38 20 42 1
39 21 22 Ar
40 21 43 1
41 22 23 Ar
42 23 50 1
43 24 25 Ar
44 24 29 Ar
45 25 26 Ar
46 25 85 1
47 26 27 Ar
48 26 86 1
49 27 28 Ar
50 27 87 1
51 28 29 Ar
52 28 88 1
53 29 89 1
54 30 31 Ar
55 30 35 Ar
56 31 32 Ar
57 31 96 1
58 32 33 Ar
59 32 97 1
60 33 34 Ar
61 33 99 1
62 34 35 Ar
63 34 98 1
64 35 95 1
65 36 37 Ar
66 36 41 Ar
67 37 38 Ar
68 37 90 1
69 38 39 Ar
70 38 91 1
71 39 40 Ar
72 39 92 1
73 40 41 Ar
74 40 93 1
75 41 94 1
76 50 51 1
77 51 52 1
78 51 63 1
79 51 74 1
80 52 53 Ar
81 52 54 Ar
82 53 55 Ar
83 53 56 1
84 54 57 Ar
85 54 58 1
86 55 59 Ar
87 55 60 1
88 57 59 Ar
89 57 61 1
90 59 62 1
91 63 64 Ar
92 63 65 Ar
93 64 66 Ar
94 64 67 1
95 65 68 Ar
96 65 69 1
97 66 70 Ar
98 66 71 1
99 68 70 Ar
100 68 72 1
101 70 73 1
102 74 75 Ar
103 74 76 Ar
104 75 77 Ar
105 75 78 1
106 76 79 Ar
107 76 80 1
108 77 81 Ar
109 77 82 1
110 79 81 Ar
111 79 83 1
112 81 84 1
113 99 100 2
114 99 101 1
