# Co_F10_PPh3_CHO_OPT
# Created by GaussView 6.0.16
#

#
#

@<TRIPOS>MOLECULE
Molecule Name
101 114
SMALL
NO_CHARGES


@<TRIPOS>ATOM
1 C1     3.3848    -0.7533    -0.9615 C
2 C2     0.0412     2.8164    -0.6827 C
3 C3    -3.3021    -0.7500    -1.0702 C
4 C4     0.7535    -3.1366    -1.1468 C
5 C5     1.8408    -4.0473    -1.3047 C
6 C6     3.0062    -3.3040    -1.2218 C
7 C7     2.6302    -1.9324    -1.0105 C
8 N8     1.2622    -1.8820    -0.9422 N
9 C9     2.7974     0.5216    -0.8446 C
10 C10     3.5070     1.7693    -0.7517 C
11 C11     2.5814     2.7698    -0.6449 C
12 C12     1.2802     2.1538    -0.6745 C
13 N13     1.4360     0.7856    -0.7907 N
14 C14    -1.1961     2.1696    -0.8502 C
15 C15    -2.4965     2.7857    -0.9013 C
16 C16    -3.4218     1.7809    -0.9859 C
17 C17    -2.7157     0.5287    -0.9790 C
18 N18    -1.3547     0.7949    -0.9048 N
19 C19    -2.5446    -1.9265    -1.1420 C
20 C20    -2.9107    -3.3007    -1.3596 C
21 C21    -1.7406    -4.0405    -1.4165 C
22 C22    -0.6596    -3.1300    -1.2191 C
23 N23    -1.1780    -1.8726    -1.0571 N
24 C24    -4.7815    -0.8574    -1.1380 C
25 C25    -5.4276    -1.3600    -2.2719 C
26 C26    -6.8115    -1.4889    -2.3373 C
27 C27    -7.5909    -1.0999    -1.2522 C
28 C28    -6.9797    -0.5905    -0.1107 C
29 C29    -5.5939    -0.4815    -0.0640 C
30 C30     4.8636    -0.8553    -1.0455 C
31 C31     5.6122    -1.5059    -0.0609 C
32 C32     6.9964    -1.6194    -0.1311 C
33 C33     7.6744    -1.0716    -1.2153 C
34 C34     6.9618    -0.4164    -2.2151 C
35 C35     5.5768    -0.3210    -2.1243 C
36 C36     0.0448     4.2915    -0.4836 C
37 C37     0.5622     4.8304     0.7066 C
38 C38     0.5642     6.2055     0.9155 C
39 C39     0.0488     7.0693    -0.0597 C
40 C40    -0.4649     6.5382    -1.2530 C
41 C41    -0.4647     5.1658    -1.4619 C
42 H42     1.7568    -5.1107    -1.4864 H
43 H43     4.0192    -3.6690    -1.3244 H
44 H44     4.5824     1.8760    -0.7725 H
45 H45     2.7678     3.8320    -0.5854 H
46 H46    -2.6866     3.8484    -0.8766 H
47 H47    -4.4946     1.8892    -1.0624 H
48 H48    -3.9189    -3.6721    -1.4819 H
49 H49    -1.6500    -5.1053    -1.5863 H
50 P50    -0.0863    -0.7007     1.5280 P
51 C51     0.0274    -2.4440     2.0778 C
52 C52     1.0836    -2.9324     2.8592 C
53 C53    -1.0104    -3.3181     1.7137 C
54 C54     1.1124    -4.2726     3.2454 C
55 H55     1.8805    -2.2754     3.1816 H
56 C56    -0.9828    -4.6527     2.1115 C
57 H57    -1.8540    -2.9541     1.1414 H
58 C58     0.0842    -5.1370     2.8692 C
59 H59     1.9397    -4.6357     3.8480 H
60 H60    -1.7941    -5.3118     1.8173 H
61 H61     0.1105    -6.1801     3.1711 H
62 C62     1.2785     0.1946     2.3570 C
63 C63     2.5970    -0.2312     2.1314 C
64 C64     1.0533     1.3059     3.1824 C
65 C65     3.6667     0.4344     2.7250 C
66 H66     2.7903    -1.0884     1.5026 H
67 C67     2.1298     1.9802     3.7603 C
68 H68     0.0449     1.6442     3.3846 H
69 C69     3.4373     1.5485     3.5333 C
70 H70     4.6764     0.0788     2.5471 H
71 H71     1.9404     2.8394     4.3976 H
72 H72     4.2719     2.0735     3.9889 H
73 C73    -1.6077    -0.0813     2.3468 C
74 C74    -2.3102    -0.8620     3.2778 C
75 C75    -2.0276     1.2376     2.1176 C
76 C76    -3.4159    -0.3357     3.9463 C
77 H77    -1.9997    -1.8767     3.4906 H
78 C78    -3.1254     1.7620     2.7945 C
79 H79    -1.4895     1.8651     1.4220 H
80 C80    -3.8273     0.9751     3.7083 C
81 H81    -3.9521    -0.9564     4.6584 H
82 H82    -3.4357     2.7829     2.5930 H
83 H83    -4.6909     1.3799     4.2280 H
84 Co84     0.0277    -0.4843    -0.6797 Co
85 F85     4.9275     0.3050    -3.1152 F
86 F86     5.0018    -2.0276     1.0199 F
87 F87     7.6784    -2.2403     0.8401 F
88 F88     7.6117     0.1057    -3.2622 F
89 F89    -7.3981    -1.9719    -3.4400 F
90 F90    -7.7262    -0.2215     0.9390 F
91 F91    -4.7138    -1.7292    -3.3454 F
92 F92    -5.0412    -0.0063     1.0611 F
93 H93     0.9615     6.6167     1.8407 H
94 H94     0.9561     4.1595     1.4639 H
95 H95    -0.8477     4.7549    -2.3907 H
96 H96    -0.8501     7.2189    -2.0056 H
97 C97     0.0534     8.5248     0.1766 C
98 H98     0.4891     8.8331     1.1522 H
99 F99    -8.9217    -1.2148    -1.3064 F
100 F100     9.0047    -1.1709    -1.2943 F
101 O101    -0.3741     9.3596    -0.6018 O
@<TRIPOS>BOND
1 1 7 Ar
2 1 9 Ar
3 1 30 1
4 2 12 Ar
5 2 14 Ar
6 2 36 1
7 3 17 Ar
8 3 19 Ar
9 3 24 1
10 4 5 Ar
11 4 8 Ar
12 4 22 Ar
13 5 6 2
14 5 42 1
15 6 7 Ar
16 6 43 1
17 7 8 Ar
18 8 84 1
19 9 10 Ar
20 9 13 1
21 10 11 2
22 10 44 1
23 11 12 Ar
24 11 45 1
25 12 13 1
26 13 84 1
27 14 15 Ar
28 14 18 1
29 15 16 2
30 15 46 1
31 16 17 Ar
32 16 47 1
33 17 18 1
34 18 84 1
35 19 20 Ar
36 19 23 Ar
37 20 21 2
38 20 48 1
39 21 22 Ar
40 21 49 1
41 22 23 Ar
42 23 84 1
43 24 25 Ar
44 24 29 Ar
45 25 26 Ar
46 25 91 1
47 26 27 Ar
48 26 89 1
49 27 28 Ar
50 27 99 1
51 28 29 Ar
52 28 90 1
53 29 92 1
54 30 31 Ar
55 30 35 Ar
56 31 32 Ar
57 31 86 1
58 32 33 Ar
59 32 87 1
60 33 34 Ar
61 33 100 1
62 34 35 Ar
63 34 88 1
64 35 85 1
65 36 37 Ar
66 36 41 Ar
67 37 38 Ar
68 37 94 1
69 38 39 Ar
70 38 93 1
71 39 40 Ar
72 39 97 1
73 40 41 Ar
74 40 96 1
75 41 95 1
76 50 51 1
77 50 62 1
78 50 73 1
79 50 84 1
80 51 52 Ar
81 51 53 Ar
82 52 54 Ar
83 52 55 1
84 53 56 Ar
85 53 57 1
86 54 58 Ar
87 54 59 1
88 56 58 Ar
89 56 60 1
90 58 61 1
91 62 63 Ar
92 62 64 Ar
93 63 65 Ar
94 63 66 1
95 64 67 Ar
96 64 68 1
97 65 69 Ar
98 65 70 1
99 67 69 Ar
100 67 71 1
101 69 72 1
102 73 74 Ar
103 73 75 Ar
104 74 76 Ar
105 74 77 1
106 75 78 Ar
107 75 79 1
108 76 80 Ar
109 76 81 1
110 78 80 Ar
111 78 82 1
112 80 83 1
113 97 98 1
114 97 101 2
