# Co_P_O2_N8_F8_OPT
# Created by GaussView 6.0.16
#

#
#

@<TRIPOS>MOLECULE
Molecule Name
134 148
SMALL
NO_CHARGES


@<TRIPOS>ATOM
1 C1     2.1549    -2.8188    -0.8480 C
2 C2     0.5641     1.8178    -0.7221 C
3 C3    -3.9482    -0.0783    -1.0755 C
4 C4    -1.2219    -3.9173    -1.0535 C
5 C5    -0.6009    -5.1968    -1.1676 C
6 C6     0.7662    -4.9936    -1.0707 C
7 C7     0.9823    -3.5840    -0.8956 C
8 N8    -0.2463    -2.9759    -0.8625 N
9 C9     2.1372    -1.4121    -0.7698 C
10 C10     3.2949    -0.5633    -0.6841 C
11 C11     2.8611     0.7320    -0.6250 C
12 C12     1.4219     0.7049    -0.6755 C
13 N13     1.0037    -0.6103    -0.7565 N
14 C14    -0.8300     1.7280    -0.8908 C
15 C15    -1.7654     2.8201    -0.9727 C
16 C16    -3.0210     2.2792    -1.0448 C
17 C17    -2.8886     0.8488    -1.0032 C
18 N18    -1.5371     0.5375    -0.9183 N
19 C19    -3.7355    -1.4624    -1.1189 C
20 C20    -4.6323    -2.5694    -1.3140 C
21 C21    -3.8676    -3.7251    -1.3434 C
22 C22    -2.5090    -3.3340    -1.1491 C
23 N23    -2.4667    -1.9717    -1.0187 N
24 C24    -5.3407     0.4279    -1.1549 C
25 C25    -6.1392     0.2387    -2.2884 C
26 C26    -7.4420     0.6994    -2.3500 C
27 C27    -8.0554     1.3934    -1.2907 C
28 C28    -7.2519     1.5855    -0.1566 C
29 C29    -5.9485     1.1055    -0.0973 C
30 C30     3.4621    -3.5185    -0.8857 C
31 C31     3.8704    -4.3960     0.1242 C
32 C32     5.0912    -5.0454     0.0895 C
33 C33     6.0054    -4.8776    -0.9661 C
34 C34     5.5927    -4.0071    -1.9871 C
35 C35     4.3668    -3.3543    -1.9380 C
36 C36     1.1709     3.1674    -0.5629 C
37 C37     1.8801     3.4831     0.6070 C
38 C38     2.4585     4.7375     0.7708 C
39 C39     2.3384     5.7175    -0.2268 C
40 C40     1.6334     5.4035    -1.4026 C
41 C41     1.0583     4.1505    -1.5635 C
42 H42    -1.1115    -6.1371    -1.3299 H
43 H43     1.5440    -5.7418    -1.1434 H
44 H44     4.3181    -0.9112    -0.6767 H
45 H45     3.4664     1.6251    -0.5783 H
46 H46    -1.5039     3.8679    -0.9718 H
47 H47    -3.9576     2.8112    -1.1352 H
48 H48    -5.7036    -2.4952    -1.4408 H
49 H49    -4.2204    -4.7374    -1.4911 H
50 P50    -1.0089    -1.2899     1.5630 P
51 C51    -1.6245    -2.9145     2.1444 C
52 C52    -0.8681    -3.7794     2.9467 C
53 C53    -2.9307    -3.2877     1.7856 C
54 C54    -1.3970    -5.0028     3.3578 C
55 H55     0.1280    -3.5039     3.2664 H
56 C56    -3.4592    -4.5047     2.2098 C
57 H57    -3.5469    -2.6187     1.1980 H
58 C58    -2.6902    -5.3717     2.9870 C
59 H59    -0.7947    -5.6628     3.9754 H
60 H60    -4.4703    -4.7747     1.9196 H
61 H61    -3.0987    -6.3257     3.3086 H
62 C62     0.5970    -1.0073     2.3958 C
63 C63     1.6258    -1.9449     2.2142 C
64 C64     0.8463     0.1356     3.1698 C
65 C65     2.8712    -1.7530     2.8080 C
66 H66     1.4565    -2.8271     1.6140 H
67 C67     2.1020     0.3332     3.7456 C
68 H68     0.0668     0.8695     3.3319 H
69 C69     3.1162    -0.6091     3.5681 C
70 H70     3.6455    -2.4999     2.6651 H
71 H71     2.2812     1.2232     4.3423 H
72 H72     4.0904    -0.4545     4.0232 H
73 C73    -2.1518    -0.0899     2.3544 C
74 C74    -3.0967    -0.4968     3.3092 C
75 C75    -2.0181     1.2789     2.0787 C
76 C76    -3.8967     0.4460     3.9551 C
77 H77    -3.2111    -1.5438     3.5574 H
78 C78    -2.8120     2.2176     2.7323 C
79 H79    -1.2834     1.6186     1.3635 H
80 C80    -3.7580     1.8040     3.6707 C
81 H81    -4.6277     0.1119     4.6859 H
82 H82    -2.6960     3.2702     2.4926 H
83 H83    -4.3864     2.5343     4.1725 H
84 Co84    -0.8015    -1.1897    -0.6447 Co
85 F85     4.0558    -2.5449    -2.9648 F
86 F86     3.0831    -4.5992     1.2025 F
87 F87     5.4453    -5.8576     1.1130 F
88 F88     6.3837    -3.7969    -3.0643 F
89 F89    -8.1731     0.4818    -3.4683 F
90 F90    -7.7386     2.2260     0.9347 F
91 F91    -5.6446    -0.4028    -3.3609 F
92 F92    -5.2650     1.3132     1.0417 F
93 N93    -9.3394     1.8777    -1.4716 N
94 H94    -9.7871     1.4200    -2.2571 H
95 N95     7.1856    -5.5916    -0.9590 N
96 H96     7.3747    -6.0081    -0.0525 H
97 C97   -10.2710     2.1009    -0.3666 C
98 H98   -11.1597     2.5697    -0.8061 H
99 H99    -9.8441     2.8146     0.3394 H
100 C100   -10.6737     0.8175     0.3609 C
101 H101    -9.7898     0.3466     0.8023 H
102 H102   -11.3641     1.0606     1.1835 H
103 C103     8.4204    -5.0793    -1.5540 C
104 H104     8.3225    -5.0187    -2.6390 H
105 H105     8.6638    -4.0740    -1.1779 H
106 C106     9.5435    -6.0394    -1.2055 C
107 H107     9.3352    -7.0242    -1.6478 H
108 H108    10.4870    -5.6630    -1.6263 H
109 O109     9.6032    -6.1215     0.2186 O
110 H110    10.1716    -6.8707     0.4549 H
111 O111   -11.2275    -0.1486    -0.5262 O
112 H112   -12.0979     0.1769    -0.8084 H
113 H113     3.0058     4.9667     1.6817 H
114 H114     1.9734     2.7351     1.3880 H
115 H115     0.5296     3.9127    -2.4812 H
116 H116     1.5579     6.1498    -2.1864 H
117 C117     2.9625     7.0201    -0.0167 C
118 H118     3.5339     7.1459     0.9055 H
119 N119     2.8515     7.9659    -0.8827 N
120 N120     3.5462     9.1352    -0.6328 N
121 H121     3.0774     9.9627    -0.9820 H
122 C122     4.7951     9.3664    -0.0837 C
123 C123     5.7534     8.2236     0.0534 C
124 C124     5.8871     7.2377    -0.9344 C
125 C125     6.6040     8.2111     1.1649 C
126 C126     6.8496     6.2397    -0.7960 C
127 H127     5.2419     7.2536    -1.8066 H
128 C128     7.5537     7.2011     1.3094 C
129 H129     6.5122     8.9980     1.9066 H
130 C130     7.6776     6.2138     0.3294 C
131 H131     6.9540     5.4819    -1.5671 H
132 H132     8.2027     7.1902     2.1804 H
133 H133     8.4212     5.4294     0.4385 H
134 O134     5.1170    10.5139     0.2122 O
@<TRIPOS>BOND
1 1 7 Ar
2 1 9 Ar
3 1 30 1
4 2 12 Ar
5 2 14 Ar
6 2 36 1
7 3 17 Ar
8 3 19 Ar
9 3 24 1
10 4 5 Ar
11 4 8 Ar
12 4 22 Ar
13 5 6 2
14 5 42 1
15 6 7 Ar
16 6 43 1
17 7 8 Ar
18 8 84 1
19 9 10 Ar
20 9 13 1
21 10 11 2
22 10 44 1
23 11 12 Ar
24 11 45 1
25 12 13 1
26 13 84 1
27 14 15 Ar
28 14 18 1
29 15 16 2
30 15 46 1
31 16 17 Ar
32 16 47 1
33 17 18 1
34 18 84 1
35 19 20 Ar
36 19 23 Ar
37 20 21 Ar
38 20 48 1
39 21 22 Ar
40 21 49 1
41 22 23 Ar
42 23 84 1
43 24 25 Ar
44 24 29 Ar
45 25 26 2
46 25 91 1
47 26 27 Ar
48 26 89 1
49 27 28 Ar
50 27 93 1
51 28 29 Ar
52 28 90 1
53 29 92 1
54 30 31 Ar
55 30 35 Ar
56 31 32 2
57 31 86 1
58 32 33 Ar
59 32 87 1
60 33 34 Ar
61 33 95 Ar
62 34 35 Ar
63 34 88 1
64 35 85 1
65 36 37 Ar
66 36 41 Ar
67 37 38 Ar
68 37 114 1
69 38 39 Ar
70 38 113 1
71 39 40 Ar
72 39 117 1
73 40 41 Ar
74 40 116 1
75 41 115 1
76 50 51 1
77 50 62 1
78 50 73 1
79 50 84 1
80 51 52 Ar
81 51 53 Ar
82 52 54 Ar
83 52 55 1
84 53 56 Ar
85 53 57 1
86 54 58 Ar
87 54 59 1
88 56 58 Ar
89 56 60 1
90 58 61 1
91 62 63 Ar
92 62 64 Ar
93 63 65 Ar
94 63 66 1
95 64 67 Ar
96 64 68 1
97 65 69 Ar
98 65 70 1
99 67 69 Ar
100 67 71 1
101 69 72 1
102 73 74 Ar
103 73 75 Ar
104 74 76 Ar
105 74 77 1
106 75 78 Ar
107 75 79 1
108 76 80 Ar
109 76 81 1
110 78 80 Ar
111 78 82 1
112 80 83 1
113 93 94 1
114 93 97 1
115 95 96 1
116 95 103 1
117 97 98 1
118 97 99 1
119 97 100 1
120 100 101 1
121 100 102 1
122 100 111 1
123 103 104 1
124 103 105 1
125 103 106 1
126 106 107 1
127 106 108 1
128 106 109 1
129 109 110 1
130 111 112 1
131 117 118 1
132 117 119 2
133 119 120 1
134 120 121 1
135 120 122 1
136 122 123 1
137 122 134 2
138 123 124 Ar
139 123 125 Ar
140 124 126 Ar
141 124 127 1
142 125 128 Ar
143 125 129 1
144 126 130 Ar
145 126 131 1
146 128 130 Ar
147 128 132 1
148 130 133 1
