# Co_P_O4_OPT
# Created by GaussView 6.0.16
#

#
#

@<TRIPOS>MOLECULE
Molecule Name
99 112
SMALL
NO_CHARGES


@<TRIPOS>ATOM
1 C1     3.3682    -0.1640    -0.9550 C
2 C2     0.0335     3.0203     0.7095 C
3 C3    -3.3053    -0.1105    -1.0599 C
4 C4     0.7377    -2.3653    -1.8765 C
5 C5     1.8202    -3.1322    -2.4049 C
6 C6     2.9844    -2.4461    -2.1067 C
7 C7     2.6135    -1.2595    -1.3846 C
8 N8     1.2493    -1.2667    -1.2400 N
9 C9     2.7837     0.9703    -0.3585 C
10 C10     3.4951     2.1150     0.1414 C
11 C11     2.5734     2.9956     0.6391 C
12 C12     1.2717     2.4123     0.4400 C
13 N13     1.4251     1.1764    -0.1611 N
14 C14    -1.2056     2.4772     0.3259 C
15 C15    -2.5071     3.0728     0.4901 C
16 C16    -3.4284     2.1911    -0.0121 C
17 C17    -2.7211     1.0302    -0.4758 C
18 N18    -1.3629     1.2314    -0.2637 N
19 C19    -2.5542    -1.2106    -1.4821 C
20 C20    -2.9195    -2.3973    -2.2074 C
21 C21    -1.7538    -3.0937    -2.4820 C
22 C22    -0.6757    -2.3413    -1.9243 C
23 N23    -1.1937    -1.2300    -1.3144 N
24 C24    -4.7696    -0.1117    -1.3354 C
25 C25    -5.3154     0.6030    -2.4180 C
26 C26    -6.6785     0.6037    -2.7057 C
27 C27    -7.5444    -0.1378    -1.9051 C
28 C28    -7.0492    -0.8727    -0.8311 C
29 C29    -5.6816    -0.8506    -0.5617 C
30 C30     4.8263    -0.1392    -1.2625 C
31 C31     5.7815    -0.8886    -0.5547 C
32 C32     7.1421    -0.8579    -0.8549 C
33 C33     7.5900    -0.0559    -1.9009 C
34 C34     6.6821     0.6944    -2.6441 C
35 C35     5.3273     0.6393    -2.3255 C
36 C36     0.0468     4.3269     1.4261 C
37 C37     0.5812     4.4074     2.7221 C
38 C38     0.5966     5.6201     3.4108 C
39 C39     0.0766     6.7720     2.8168 C
40 C40    -0.4533     6.7038     1.5266 C
41 C41    -0.4664     5.4918     0.8358 C
42 H42     1.7301    -4.0567    -2.9602 H
43 H43     3.9948    -2.7260    -2.3716 H
44 H44     4.5689     2.2376     0.1037 H
45 H45     2.7573     3.9688     1.0701 H
46 H46    -2.6974     4.0413     0.9283 H
47 H47    -4.5010     2.3188    -0.0613 H
48 H48    -3.9258    -2.6674    -2.4976 H
49 H49    -1.6610    -4.0206    -3.0331 H
50 H50     7.8382    -1.4518    -0.2745 H
51 H51     7.0174     1.3110    -3.4697 H
52 H52    -7.7138    -1.4558    -0.2044 H
53 H53    -7.0523     1.1706    -3.5503 H
54 H54     1.0111     5.6635     4.4145 H
55 H55    -0.8512     7.5971     1.0528 H
56 Co56     0.0150    -0.0507    -0.4914 Co
57 P57    -0.1152    -0.9919     1.5119 P
58 C58     0.2529    -2.7809     1.4176 C
59 C59     1.4250    -3.3476     1.9333 C
60 C60    -0.6868    -3.6103     0.7813 C
61 C61     1.6650    -4.7145     1.7945 C
62 H62     2.1492    -2.7322     2.4515 H
63 C63    -0.4480    -4.9771     0.6579 C
64 H64    -1.6106    -3.1945     0.3972 H
65 C65     0.7329    -5.5315     1.1541 C
66 H66     2.5812    -5.1393     2.1947 H
67 H67    -1.1842    -5.6033     0.1622 H
68 H68     0.9232    -6.5957     1.0475 H
69 C69     1.0678    -0.2556     2.7031 C
70 C70     2.4381    -0.2956     2.4080 C
71 C71     0.6436     0.3781     3.8803 C
72 C72     3.3658     0.2871     3.2663 C
73 H73     2.7844    -0.7737     1.5038 H
74 C74     1.5766     0.9695     4.7342 C
75 H75    -0.4073     0.4187     4.1367 H
76 C76     2.9377     0.9285     4.4300 C
77 H77     4.4204     0.2428     3.0137 H
78 H78     1.2326     1.4603     5.6403 H
79 H79     3.6603     1.3924     5.0954 H
80 C80    -1.6996    -0.9271     2.4349 C
81 C81    -2.1657    -2.0451     3.1450 C
82 C82    -2.3653     0.2967     2.5884 C
83 C83    -3.2802    -1.9379     3.9770 C
84 H84    -1.6576    -2.9974     3.0629 H
85 C85    -3.4769     0.4004     3.4222 C
86 H86    -1.9984     1.1810     2.0903 H
87 C87    -3.9396    -0.7160     4.1181 C
88 H88    -3.6271    -2.8130     4.5192 H
89 H89    -3.9788     1.3584     3.5195 H
90 H90    -4.8092    -0.6363     4.7641 H
91 H91     0.0872     7.7168     3.3533 H
92 H92    -0.8658     5.4432    -0.1727 H
93 H93     0.9797     3.5098     3.1854 H
94 H94     8.6479    -0.0209    -2.1421 H
95 H95    -8.6081    -0.1463    -2.1228 H
96 Br96    -4.1706     1.5991    -3.5819 Br
97 Br97    -5.0559    -1.8569     0.9354 Br
98 Br98     4.1305     1.6467    -3.4247 Br
99 Br99     5.2443    -2.0213     0.8938 Br
@<TRIPOS>BOND
1 1 7 Ar
2 1 9 Ar
3 1 30 1
4 2 12 Ar
5 2 14 Ar
6 2 36 1
7 3 17 Ar
8 3 19 Ar
9 3 24 1
10 4 5 Ar
11 4 8 Ar
12 4 22 Ar
13 5 6 2
14 5 42 1
15 6 7 Ar
16 6 43 1
17 7 8 Ar
18 8 56 1
19 9 10 Ar
20 9 13 1
21 10 11 2
22 10 44 1
23 11 12 Ar
24 11 45 1
25 12 13 1
26 13 56 1
27 14 15 Ar
28 14 18 1
29 15 16 2
30 15 46 1
31 16 17 Ar
32 16 47 1
33 17 18 1
34 18 56 1
35 19 20 Ar
36 19 23 Ar
37 20 21 2
38 20 48 1
39 21 22 Ar
40 21 49 1
41 22 23 Ar
42 23 56 1
43 24 25 Ar
44 24 29 Ar
45 25 26 Ar
46 25 96 1
47 26 27 Ar
48 26 53 1
49 27 28 Ar
50 27 95 1
51 28 29 Ar
52 28 52 1
53 29 97 1
54 30 31 Ar
55 30 35 Ar
56 31 32 Ar
57 31 99 1
58 32 33 Ar
59 32 50 1
60 33 34 Ar
61 33 94 1
62 34 35 Ar
63 34 51 1
64 35 98 1
65 36 37 Ar
66 36 41 Ar
67 37 38 Ar
68 37 93 1
69 38 39 Ar
70 38 54 1
71 39 40 Ar
72 39 91 1
73 40 41 Ar
74 40 55 1
75 41 92 1
76 56 57 1
77 57 58 1
78 57 69 1
79 57 80 1
80 58 59 Ar
81 58 60 Ar
82 59 61 Ar
83 59 62 1
84 60 63 Ar
85 60 64 1
86 61 65 Ar
87 61 66 1
88 63 65 Ar
89 63 67 1
90 65 68 1
91 69 70 Ar
92 69 71 Ar
93 70 72 Ar
94 70 73 1
95 71 74 Ar
96 71 75 1
97 72 76 Ar
98 72 77 1
99 74 76 Ar
100 74 78 1
101 76 79 1
102 80 81 Ar
103 80 82 Ar
104 81 83 Ar
105 81 84 1
106 82 85 Ar
107 82 86 1
108 83 87 Ar
109 83 88 1
110 85 87 Ar
111 85 89 1
112 87 90 1
