# 149f_NO
# Created by GaussView 6.0.16
#

#
#

@<TRIPOS>MOLECULE
Molecule Name
106 116
SMALL
NO_CHARGES


@<TRIPOS>ATOM
1 C1     3.4256    -1.7899    -0.0688 C
2 C2    -0.0030     1.7509    -0.0146 C
3 C3    -3.4290    -1.7551    -0.1282 C
4 C4     0.6786    -4.1326    -0.2505 C
5 C5     1.6825    -5.0292     0.1662 C
6 C6     2.8880    -4.3237     0.2517 C
7 C7     2.6435    -2.9728    -0.0993 C
8 N8     1.3004    -2.9080    -0.4178 N
9 C9     2.8522    -0.5091    -0.0826 C
10 C10     3.5034     0.7638    -0.1917 C
11 C11     2.5503     1.7522    -0.1826 C
12 C12     1.2586     1.1418    -0.0591 C
13 N13     1.4880    -0.2197    -0.0211 N
14 C14    -1.2566     1.0808     0.0004 C
15 C15    -2.5467     1.7557     0.0453 C
16 C16    -3.5023     0.7874     0.0079 C
17 C17    -2.8099    -0.4872    -0.0505 C
18 N18    -1.4426    -0.2681    -0.0476 N
19 C19    -2.6823    -2.9511    -0.2538 C
20 C20    -2.9976    -4.3415    -0.2181 C
21 C21    -1.8010    -5.0536    -0.2418 C
22 C22    -0.7377    -4.1128    -0.2994 C
23 N23    -1.3219    -2.8774    -0.3378 N
24 C24    -4.9041    -1.8673    -0.0616 C
25 C25    -5.6468    -2.4843    -1.0741 C
26 C26    -7.0221    -2.6460    -1.0050 C
27 C27    -7.0363    -1.5157     1.0812 C
28 C28    -5.6550    -1.4045     1.0243 C
29 C29     4.9051    -1.9118    -0.0212 C
30 C30     5.5816    -2.4931     1.0540 C
31 C31     6.9624    -2.6187     1.0928 C
32 C32     7.1021    -1.6116    -1.0511 C
33 C33     5.7221    -1.4729    -1.0667 C
34 C34    -0.0082     3.2395    -0.0036 C
35 C35     0.5270     3.9795     1.0541 C
36 C36     0.5590     5.3665     1.0580 C
37 C37    -0.5581     5.3847    -1.0362 C
38 C38    -0.5329     3.9979    -1.0536 C
39 H39     1.5210    -6.0602     0.4502 H
40 H40     3.8280    -4.7139     0.6125 H
41 H41     0.9484    -2.2108    -1.0618 H
42 H42     4.5700     0.8988    -0.2928 H
43 H43     2.7206     2.8145    -0.2808 H
44 H44     0.7775    -0.8415     0.3396 H
45 H45    -2.7001     2.8240     0.1024 H
46 H46    -4.5744     0.9251     0.0051 H
47 H47    -3.9938    -4.7572    -0.1635 H
48 H48    -1.6852    -6.1287    -0.2277 H
49 H49    -0.8961    -1.9484    -0.2325 H
50 C50    -7.7870    -2.1585     0.0750 C
51 C51     0.0022     6.1366     0.0168 C
52 F52    -7.6264    -3.3173    -2.0115 F
53 F53    -5.0206    -2.9801    -2.1569 F
54 F54    -5.0420    -0.7981     2.0563 F
55 F55    -7.6669    -0.9732     2.1476 F
56 F56     1.0792     3.3434     2.1033 F
57 F57     1.1659     5.9808     2.0991 F
58 F58    -1.0791     3.3807    -2.1165 F
59 F59    -1.1568     6.0178    -2.0705 F
60 F60     5.1675    -0.9212    -2.1623 F
61 F61     7.7848    -1.2117    -2.1476 F
62 F62     4.8887    -2.9290     2.1233 F
63 F63     7.5160    -3.1339     2.2134 F
64 C64     7.7905    -2.1893     0.0353 C
65 N65     9.1599    -2.3236     0.0642 N
66 C66     9.8148    -3.4461     0.7454 C
67 C67    10.0488    -1.3700    -0.6088 C
68 C68    11.1301    -3.7520     0.0393 C
69 H69     9.1705    -4.3282     0.6951 H
70 C70    11.3997    -1.3762     0.0948 C
71 H71     9.6192    -0.3655    -0.5491 H
72 H72    10.9240    -4.0563    -0.9981 H
73 H73    11.2712    -1.0489     1.1378 H
74 N74    -9.1541    -2.3006     0.1437 N
75 C75    -9.8561    -2.4539     1.4234 C
76 C76    -9.9948    -2.3282    -1.0587 C
77 C77   -11.1196    -3.2743     1.1977 C
78 H78   -10.1161    -1.4845     1.8666 H
79 C79   -11.3901    -1.8379    -0.6946 C
80 H80   -10.0578    -3.3343    -1.4918 H
81 H81   -11.6553    -3.3938     2.1452 H
82 H82   -12.0289    -1.8527    -1.5835 H
83 N83     0.0056     7.5135     0.0271 N
84 C84    -0.0858     8.2810     1.2742 C
85 C85     0.1016     8.2998    -1.2079 C
86 C86    -0.7339     9.6272     0.9762 C
87 H87     0.8985     8.4372     1.7336 H
88 C88     0.7611     9.6359    -0.8897 C
89 H89    -0.8819     8.4713    -1.6635 H
90 H90    -0.8090    10.2124     1.8985 H
91 H91     0.8398    10.2348    -1.8029 H
92 O92    12.0375    -2.6511     0.0552 O
93 O93     0.0177    10.4096     0.0501 O
94 O94   -12.0260    -2.6579     0.2844 O
95 H95    -0.7056     7.7376     1.9932 H
96 H96    -1.7535     9.4655     0.5948 H
97 H97     1.7800     9.4596    -0.5127 H
98 H98     0.7159     7.7628    -1.9363 H
99 H99    -9.2124    -2.9817     2.1325 H
100 H100   -10.8435    -4.2767     0.8367 H
101 H101    -9.5696    -1.6646    -1.8172 H
102 H102   -11.3319    -0.7982    -0.3379 H
103 H103    11.6326    -4.5856     0.5409 H
104 H104    10.0019    -3.2296     1.8048 H
105 H105    10.1836    -1.6136    -1.6699 H
106 H106    12.0743    -0.6691    -0.3986 H
@<TRIPOS>BOND
1 1 7 Ar
2 1 9 Ar
3 1 29 1
4 2 12 Ar
5 2 14 Ar
6 2 34 1
7 3 17 Ar
8 3 19 Ar
9 3 24 1
10 4 5 Ar
11 4 8 1
12 4 22 Ar
13 5 6 Ar
14 5 39 1
15 6 7 Ar
16 6 40 1
17 7 8 1
18 8 41 1
19 9 10 Ar
20 9 13 1
21 10 11 2
22 10 42 1
23 11 12 Ar
24 11 43 1
25 12 13 Ar
26 13 44 1
27 14 15 1
28 14 18 Ar
29 15 16 2
30 15 45 1
31 16 17 1
32 16 46 1
33 17 18 1
34 19 20 Ar
35 19 23 Ar
36 20 21 Ar
37 20 47 1
38 21 22 Ar
39 21 48 1
40 22 23 Ar
41 23 49 1
42 24 25 Ar
43 24 28 Ar
44 25 26 Ar
45 25 53 1
46 26 50 Ar
47 26 52 1
48 27 28 Ar
49 27 50 Ar
50 27 55 1
51 28 54 1
52 29 30 Ar
53 29 33 Ar
54 30 31 Ar
55 30 62 1
56 31 63 1
57 31 64 Ar
58 32 33 Ar
59 32 61 1
60 32 64 Ar
61 33 60 1
62 34 35 Ar
63 34 38 Ar
64 35 36 Ar
65 35 56 1
66 36 51 Ar
67 36 57 1
68 37 38 Ar
69 37 51 Ar
70 37 59 1
71 38 58 1
72 50 74 Ar
73 51 83 Ar
74 64 65 Ar
75 65 66 1
76 65 67 1
77 66 68 1
78 66 69 1
79 66 104 1
80 67 70 1
81 67 71 1
82 67 105 1
83 68 72 1
84 68 92 1
85 68 103 1
86 70 73 1
87 70 92 1
88 70 106 1
89 74 75 1
90 74 76 1
91 75 77 1
92 75 78 1
93 75 99 1
94 76 79 1
95 76 80 1
96 76 101 1
97 77 81 1
98 77 94 1
99 77 100 1
100 79 82 1
101 79 94 1
102 79 102 1
103 83 84 1
104 83 85 1
105 84 86 1
106 84 87 1
107 84 95 1
108 85 88 1
109 85 89 1
110 85 98 1
111 86 90 1
112 86 93 1
113 86 96 1
114 88 91 1
115 88 93 1
116 88 97 1
