# Co_PPh3_8F_Ph_NNC0_Ph_2NCCOH
# Created by GaussView 6.0.16
#

#
#

@<TRIPOS>MOLECULE
Molecule Name
134 148
SMALL
NO_CHARGES


@<TRIPOS>ATOM
1 C1     3.1207    -1.8896    -0.9694 C
2 C2    -0.1642     1.7507    -1.1528 C
3 C3    -3.5801    -1.7642    -0.8586 C
4 C4     0.4261    -4.2123    -0.7480 C
5 C5     1.4845    -5.1613    -0.8537 C
6 C6     2.6679    -4.4428    -0.9273 C
7 C7     2.3320    -3.0461    -0.8736 C
8 N8     0.9698    -2.9543    -0.7613 N
9 C9     2.5572    -0.5984    -1.0492 C
10 C10     3.2860     0.6385    -1.1409 C
11 C11     2.3790     1.6593    -1.2020 C
12 C12     1.0656     1.0720    -1.1508 C
13 N13     1.1986    -0.3033    -1.0556 N
14 C14    -1.4183     1.1107    -1.1175 C
15 C15    -2.7035     1.7315    -1.2943 C
16 C16    -3.6470     0.7394    -1.2483 C
17 C17    -2.9657    -0.5066    -1.0306 C
18 N18    -1.5979    -0.2514    -0.9707 N
19 C19    -2.8429    -2.9411    -0.6895 C
20 C20    -3.2411    -4.3213    -0.6260 C
21 C21    -2.0882    -5.0870    -0.6179 C
22 C22    -0.9857    -4.1815    -0.6667 C
23 N23    -1.4723    -2.9028    -0.6805 N
24 C24    -5.0614    -1.8470    -0.8923 C
25 C25    -5.7431    -2.5342    -1.9033 C
26 C26    -7.1235    -2.6226    -1.9243 C
27 C27    -7.9391    -2.0316    -0.9417 C
28 C28    -7.2556    -1.3424     0.0723 C
29 C29    -5.8684    -1.2593     0.0827 C
30 C30    -0.1524     3.2375    -1.1905 C
31 C31    -0.7487     3.9709    -0.1525 C
32 C32    -0.7374     5.3620    -0.1688 C
33 C33    -0.1324     6.0608    -1.2250 C
34 C34     0.4672     5.3294    -2.2662 C
35 C35     0.4510     3.9419    -2.2491 C
36 C36     4.5939    -2.0463    -1.0076 C
37 C37     5.3782    -1.5713    -2.0674 C
38 C38     6.7543    -1.7162    -2.0869 C
39 C39     7.4668    -2.3564    -1.0580 C
40 C40     6.6837    -2.8399     0.0002 C
41 C41     5.3012    -2.7016     0.0056 C
42 H42    -4.2609    -4.6810    -0.6163 H
43 H43    -2.0218    -6.1670    -0.5999 H
44 H44     1.3708    -6.2370    -0.8857 H
45 H45     3.6662    -4.8441    -1.0352 H
46 H46    -4.7156     0.8456    -1.3733 H
47 H47    -2.8668     2.7847    -1.4699 H
48 H48     2.5881     2.7171    -1.2617 H
49 H49     4.3625     0.7259    -1.1424 H
50 Co50    -0.2162    -1.5007    -0.6302 Co
51 P51     0.0209    -1.3539     1.5700 P
52 C52    -0.1902    -2.9788     2.3844 C
53 C53     0.7359    -4.0181     2.2025 C
54 C54    -1.3484    -3.2237     3.1398 C
55 C55     0.5258    -5.2604     2.7990 C
56 H56     1.6134    -3.8767     1.5869 H
57 C57    -1.5628    -4.4743     3.7160 C
58 H58    -2.0861    -2.4416     3.2746 H
59 C59    -0.6232    -5.4938     3.5540 C
60 H60     1.2569    -6.0497     2.6510 H
61 H61    -2.4658    -4.6488     4.2939 H
62 H62    -0.7896    -6.4665     4.0083 H
63 C63    -1.0887    -0.2566     2.5457 C
64 C64    -0.6676     0.1395     3.8292 C
65 C65    -2.3533     0.1328     2.0983 C
66 C66    -1.4907     0.9291     4.6273 C
67 H67     0.3033    -0.1647     4.2036 H
68 C68    -3.1754     0.9284     2.8999 C
69 H69    -2.7134    -0.1862     1.1353 H
70 C70    -2.7446     1.3345     4.1610 C
71 H71    -1.1505     1.2297     5.6142 H
72 H72    -4.1519     1.2198     2.5267 H
73 H73    -3.3820     1.9565     4.7831 H
74 C74     1.6550    -0.6630     2.0455 C
75 C75     2.7310    -1.4289     2.5038 C
76 C76     1.8077     0.7306     1.9384 C
77 C77     3.9429    -0.8172     2.8334 C
78 H78     2.6407    -2.4986     2.6180 H
79 C79     3.0132     1.3364     2.2735 C
80 H80     0.9840     1.3429     1.5915 H
81 C81     4.0886     0.5632     2.7182 C
82 H82     4.7710    -1.4319     3.1721 H
83 H83     3.1144     2.4132     2.1759 H
84 H84     5.0325     1.0366     2.9735 H
85 F85    -5.0567    -3.1147    -2.9019 F
86 F86    -7.7352    -3.2816    -2.9376 F
87 F87    -7.9336    -0.7527     1.0832 F
88 F88    -5.3008    -0.5907     1.1067 F
89 F89     4.7981    -0.9731    -3.1221 F
90 F90     7.4555    -1.2507    -3.1481 F
91 F91     7.2612    -3.4453     1.0626 F
92 F92     4.6497    -3.2125     1.0687 F
93 H93     0.9014     3.3851    -3.0647 H
94 H94    -1.2163     3.4397     0.6712 H
95 H95    -1.1963     5.9163     0.6460 H
96 H96     0.9345     5.8656    -3.0855 H
97 C97    -0.1488     7.5206    -1.2074 C
98 H98    -0.6134     7.9927    -0.3391 H
99 N99     0.3648     8.2086    -2.1660 N
100 N100     0.3606     9.5852    -2.0368 N
101 H101     0.2691    10.0686    -2.9224 H
102 C102     0.5253    10.4132    -0.9406 C
103 O103     0.2765    11.6107    -1.0500 O
104 C104     1.0884     9.8408     0.3234 C
105 C105     2.1409     8.9153     0.3161 C
106 C106     0.6007    10.3275     1.5416 C
107 C107     2.6833     8.4679     1.5190 C
108 H108     2.5321     8.5488    -0.6273 H
109 C109     1.1320     9.8632     2.7439 C
110 H110    -0.1928    11.0678     1.5335 H
111 C111     2.1739     8.9333     2.7341 C
112 H112     3.5038     7.7562     1.5083 H
113 H113     0.7407    10.2341     3.6868 H
114 H114     2.5917     8.5752     3.6708 H
115 N115    -9.3060    -2.2106    -1.0106 N
116 H116    -9.5846    -2.5847    -1.9108 H
117 C117   -10.2665    -1.2571    -0.4566 C
118 H118   -10.1182    -0.2410    -0.8508 H
119 H119   -10.1591    -1.2131     0.6277 H
120 C120   -11.6742    -1.7261    -0.7969 C
121 H121   -11.7851    -1.8062    -1.8923 H
122 H122   -11.8377    -2.7285    -0.3723 H
123 O123   -12.5711    -0.7683    -0.2567 O
124 H124   -13.4738    -1.0733    -0.4364 H
125 N125     8.8488    -2.4156    -1.1203 N
126 H126     9.1802    -2.0755    -2.0172 H
127 C127     9.5966    -3.5900    -0.6651 C
128 H128     9.3349    -4.4931    -1.2371 H
129 H129     9.3723    -3.7829     0.3833 H
130 C130    11.0864    -3.3150    -0.8147 C
131 H131    11.3143    -3.0587    -1.8639 H
132 H132    11.3617    -2.4486    -0.1947 H
133 O133    11.7669    -4.4943    -0.4127 O
134 H134    12.7192    -4.3207    -0.4686 H
@<TRIPOS>BOND
1 1 7 Ar
2 1 9 Ar
3 1 36 1
4 2 12 Ar
5 2 14 Ar
6 2 30 1
7 3 17 Ar
8 3 19 Ar
9 3 24 1
10 4 5 Ar
11 4 8 Ar
12 4 22 Ar
13 5 6 Ar
14 5 44 1
15 6 7 Ar
16 6 45 1
17 7 8 Ar
18 8 50 1
19 9 10 Ar
20 9 13 1
21 10 11 2
22 10 49 1
23 11 12 Ar
24 11 48 1
25 12 13 1
26 13 50 1
27 14 15 Ar
28 14 18 Ar
29 15 16 2
30 15 47 1
31 16 17 Ar
32 16 46 1
33 17 18 1
34 18 50 1
35 19 20 Ar
36 19 23 Ar
37 20 21 2
38 20 42 1
39 21 22 Ar
40 21 43 1
41 22 23 Ar
42 23 50 1
43 24 25 Ar
44 24 29 Ar
45 25 26 2
46 25 85 1
47 26 27 Ar
48 26 86 1
49 27 28 Ar
50 27 115 Ar
51 28 29 Ar
52 28 87 1
53 29 88 1
54 30 31 Ar
55 30 35 Ar
56 31 32 Ar
57 31 94 1
58 32 33 Ar
59 32 95 1
60 33 34 Ar
61 33 97 1
62 34 35 Ar
63 34 96 1
64 35 93 1
65 36 37 Ar
66 36 41 Ar
67 37 38 2
68 37 89 1
69 38 39 Ar
70 38 90 1
71 39 40 Ar
72 39 125 1
73 40 41 Ar
74 40 91 1
75 41 92 1
76 50 51 1
77 51 52 1
78 51 63 1
79 51 74 1
80 52 53 Ar
81 52 54 Ar
82 53 55 Ar
83 53 56 1
84 54 57 Ar
85 54 58 1
86 55 59 Ar
87 55 60 1
88 57 59 Ar
89 57 61 1
90 59 62 1
91 63 64 Ar
92 63 65 Ar
93 64 66 Ar
94 64 67 1
95 65 68 Ar
96 65 69 1
97 66 70 Ar
98 66 71 1
99 68 70 Ar
100 68 72 1
101 70 73 1
102 74 75 Ar
103 74 76 Ar
104 75 77 Ar
105 75 78 1
106 76 79 Ar
107 76 80 1
108 77 81 Ar
109 77 82 1
110 79 81 Ar
111 79 83 1
112 81 84 1
113 97 98 1
114 97 99 2
115 99 100 1
116 100 101 1
117 100 102 1
118 102 103 2
119 102 104 1
120 104 105 Ar
121 104 106 Ar
122 105 107 Ar
123 105 108 1
124 106 109 Ar
125 106 110 1
126 107 111 Ar
127 107 112 1
128 109 111 Ar
129 109 113 1
130 111 114 1
131 115 116 1
132 115 117 1
133 117 118 1
134 117 119 1
135 117 120 1
136 120 121 1
137 120 122 1
138 120 123 1
139 123 124 1
140 125 126 1
141 125 127 1
142 127 128 1
143 127 129 1
144 127 130 1
145 130 131 1
146 130 132 1
147 130 133 1
148 133 134 1
