# Co_PPh3_10F
# Created by GaussView 6.0.16
#

#
#

@<TRIPOS>MOLECULE
Molecule Name
99 112
SMALL
NO_CHARGES


@<TRIPOS>ATOM
1 C1     3.3365    -0.3374    -1.0395 C
2 C2     0.0120     3.2421    -0.6121 C
3 C3    -3.3495    -0.2926    -1.1366 C
4 C4     0.6885    -2.6170    -1.7244 C
5 C5     1.7744    -3.5127    -1.9620 C
6 C6     2.9424    -2.8119    -1.7088 C
7 C7     2.5717    -1.4762    -1.3234 C
8 N8     1.2045    -1.4075    -1.3387 N
9 C9     2.7599     0.9352    -0.8433 C
10 C10     3.4714     2.1618    -0.5982 C
11 C11     2.5501     3.1669    -0.4858 C
12 C12     1.2472     2.5784    -0.6588 C
13 N13     1.4009     1.2154    -0.8647 N
14 C14    -1.2300     2.6031    -0.7719 C
15 C15    -2.5261     3.2265    -0.7756 C
16 C16    -3.4605     2.2289    -0.8884 C
17 C17    -2.7592     0.9790    -0.9788 C
18 N18    -1.3959     1.2353    -0.9150 N
19 C19    -2.6006    -1.4446    -1.3914 C
20 C20    -2.9787    -2.7955    -1.7088 C
21 C21    -1.8153    -3.5104    -1.9318 C
22 C22    -0.7251    -2.6078    -1.7392 C
23 N23    -1.2325    -1.3783    -1.4161 N
24 C24    -4.8245    -0.4077    -1.0268 C
25 C25    -5.6271    -0.7764    -2.1092 C
26 C26    -7.0080    -0.9049    -1.9920 C
27 C27    -7.6205    -0.6554    -0.7678 C
28 C28    -6.8485    -0.2877     0.3307 C
29 C29    -5.4700    -0.1737     0.1914 C
30 C30     0.0128     4.7121    -0.3619 C
31 C31    -0.5777     5.2334     0.7995 C
32 C32    -0.5731     6.6066     1.0438 C
33 C33     0.0219     7.4794     0.1304 C
34 C34     0.6113     6.9709    -1.0288 C
35 C35     0.6071     5.5976    -1.2733 C
36 C36     4.8099    -0.4877    -0.9579 C
37 C37     5.6796     0.1789    -1.8276 C
38 C38     7.0613     0.0406    -1.7433 C
39 C39     7.6115    -0.7992    -0.7800 C
40 C40     6.7748    -1.4904     0.0902 C
41 C41     5.3966    -1.3323    -0.0086 C
42 H42    -3.9922    -3.1660    -1.7802 H
43 H43    -1.7337    -4.5540    -2.2052 H
44 H44     1.6885    -4.5394    -2.2931 H
45 H45     3.9553    -3.1761    -1.8141 H
46 H46    -4.5346     2.3417    -0.9421 H
47 H47    -2.7039     4.2901    -0.7137 H
48 H48     2.7404     4.2145    -0.3044 H
49 H49     4.5449     2.2533    -0.5164 H
50 Co50    -0.0118    -0.0559    -0.8696 Co
51 P51     0.0034    -0.6622     1.2704 P
52 C52    -0.4724    -2.4188     1.4160 C
53 C53     0.4407    -3.4438     1.1269 C
54 C54    -1.8014    -2.7496     1.7249 C
55 C55     0.0431    -4.7786     1.2003 C
56 H56     1.4576    -3.2075     0.8390 H
57 C57    -2.1959    -4.0845     1.7804 C
58 H58    -2.5274    -1.9668     1.9149 H
59 C59    -1.2725    -5.1020     1.5312 C
60 H60     0.7635    -5.5621     0.9838 H
61 H61    -3.2271    -4.3283     2.0187 H
62 H62    -1.5813    -6.1422     1.5831 H
63 C63    -1.0993     0.1577     2.4980 C
64 C64    -1.0935    -0.3658     3.8050 C
65 C65    -1.8937     1.2696     2.2167 C
66 C66    -1.8836     0.2077     4.7959 C
67 H67    -0.4737    -1.2232     4.0465 H
68 C68    -2.6853     1.8444     3.2146 C
69 H69    -1.9036     1.6931     1.2291 H
70 C70    -2.6856     1.3155     4.5024 C
71 H71    -1.8733    -0.2097     5.7987 H
72 H72    -3.3050     2.7017     2.9685 H
73 H73    -3.3041     1.7600     5.2770 H
74 C74     1.6152    -0.4629     2.1294 C
75 C75     2.2383    -1.4860     2.8572 C
76 C76     2.1693     0.8256     2.1582 C
77 C77     3.4145    -1.2311     3.5634 C
78 H78     1.8127    -2.4803     2.8882 H
79 C79     3.3425     1.0760     2.8651 C
80 H80     1.6814     1.6396     1.6366 H
81 C81     3.9758     0.0453     3.5618 C
82 H82     3.8910    -2.0375     4.1133 H
83 H83     3.7609     2.0780     2.8628 H
84 H84     4.8948     0.2383     4.1080 H
85 F85    -5.0734    -1.0139    -3.3067 F
86 F86    -7.7504    -1.2570    -3.0495 F
87 F87    -8.9465    -0.7732    -0.6446 F
88 F88    -7.4361    -0.0599     1.5128 F
89 F89    -4.7524     0.1536     1.2787 F
90 F90     5.1915     0.9787    -2.7871 F
91 F91     7.8631     0.6972    -2.5918 F
92 F92     8.9379    -0.9429    -0.6927 F
93 F93     7.3008    -2.2982     1.0211 F
94 F94     4.6309    -2.0180     0.8530 F
95 H95     1.0584     5.2020    -2.1783 H
96 H96    -1.0310     4.5527     1.5142 H
97 H97    -1.0294     6.9943     1.9505 H
98 H98     0.0257     8.5490     0.3206 H
99 H99     1.0709     7.6440    -1.7472 H
@<TRIPOS>BOND
1 1 7 Ar
2 1 9 Ar
3 1 36 1
4 2 12 Ar
5 2 14 Ar
6 2 30 1
7 3 17 Ar
8 3 19 Ar
9 3 24 1
10 4 5 Ar
11 4 8 Ar
12 4 22 Ar
13 5 6 2
14 5 44 1
15 6 7 Ar
16 6 45 1
17 7 8 Ar
18 8 50 1
19 9 10 Ar
20 9 13 1
21 10 11 2
22 10 49 1
23 11 12 Ar
24 11 48 1
25 12 13 1
26 13 50 1
27 14 15 Ar
28 14 18 1
29 15 16 2
30 15 47 1
31 16 17 Ar
32 16 46 1
33 17 18 1
34 18 50 1
35 19 20 Ar
36 19 23 Ar
37 20 21 2
38 20 42 1
39 21 22 Ar
40 21 43 1
41 22 23 Ar
42 23 50 1
43 24 25 Ar
44 24 29 Ar
45 25 26 Ar
46 25 85 1
47 26 27 Ar
48 26 86 1
49 27 28 Ar
50 27 87 1
51 28 29 Ar
52 28 88 1
53 29 89 1
54 30 31 Ar
55 30 35 Ar
56 31 32 Ar
57 31 96 1
58 32 33 Ar
59 32 97 1
60 33 34 Ar
61 33 98 1
62 34 35 Ar
63 34 99 1
64 35 95 1
65 36 37 Ar
66 36 41 Ar
67 37 38 Ar
68 37 90 1
69 38 39 Ar
70 38 91 1
71 39 40 Ar
72 39 92 1
73 40 41 Ar
74 40 93 1
75 41 94 1
76 50 51 1
77 51 52 1
78 51 63 1
79 51 74 1
80 52 53 Ar
81 52 54 Ar
82 53 55 Ar
83 53 56 1
84 54 57 Ar
85 54 58 1
86 55 59 Ar
87 55 60 1
88 57 59 Ar
89 57 61 1
90 59 62 1
91 63 64 Ar
92 63 65 Ar
93 64 66 Ar
94 64 67 1
95 65 68 Ar
96 65 69 1
97 66 70 Ar
98 66 71 1
99 68 70 Ar
100 68 72 1
101 70 73 1
102 74 75 Ar
103 74 76 Ar
104 75 77 Ar
105 75 78 1
106 76 79 Ar
107 76 80 1
108 77 81 Ar
109 77 82 1
110 79 81 Ar
111 79 83 1
112 81 84 1
