# Co_PPh3_10F_CHO
# Created by GaussView 6.0.16
#

#
#

@<TRIPOS>MOLECULE
Molecule Name
101 114
SMALL
NO_CHARGES


@<TRIPOS>ATOM
1 C1     3.3239    -0.6233    -1.0355 C
2 C2     0.0347     2.9884    -0.6179 C
3 C3    -3.3624    -0.5112    -1.1404 C
4 C4     0.6531    -2.8774    -1.7140 C
5 C5     1.7297    -3.7847    -1.9501 C
6 C6     2.9045    -3.0949    -1.6992 C
7 C7     2.5474    -1.7548    -1.3163 C
8 N8     1.1809    -1.6726    -1.3306 N
9 C9     2.7602     0.6551    -0.8412 C
10 C10     3.4844     1.8746    -0.5992 C
11 C11     2.5741     2.8900    -0.4911 C
12 C12     1.2650     2.3146    -0.6642 C
13 N13     1.4040     0.9497    -0.8640 N
14 C14    -1.2152     2.3634    -0.7761 C
15 C15    -2.5048     3.0000    -0.7865 C
16 C16    -3.4487     2.0114    -0.9009 C
17 C17    -2.7597     0.7546    -0.9859 C
18 N18    -1.3939     0.9977    -0.9178 N
19 C19    -2.6243    -1.6713    -1.3890 C
20 C20    -3.0155    -3.0189    -1.7043 C
21 C21    -1.8592    -3.7459    -1.9238 C
22 C22    -0.7604    -2.8538    -1.7302 C
23 N23    -1.2556    -1.6188    -1.4104 N
24 C24    -4.8387    -0.6116    -1.0333 C
25 C25    -5.6424    -0.9734    -2.1171 C
26 C26    -7.0246    -1.0901    -2.0022 C
27 C27    -7.6367    -0.8357    -0.7788 C
28 C28    -6.8635    -0.4744     0.3210 C
29 C29    -5.4838    -0.3716     0.1838 C
30 C30     0.0501     4.4568    -0.3708 C
31 C31    -0.5592     4.9870     0.7780 C
32 C32    -0.5396     6.3574     1.0173 C
33 C33     0.0892     7.2232     0.1129 C
34 C34     0.6979     6.7001    -1.0383 C
35 C35     0.6781     5.3327    -1.2759 C
36 C36     4.7962    -0.7870    -0.9577 C
37 C37     5.6689    -0.1296    -1.8314 C
38 C38     7.0496    -0.2796    -1.7508 C
39 C39     7.5952    -1.1220    -0.7871 C
40 C40     6.7552    -1.8046     0.0868 C
41 C41     5.3780    -1.6350    -0.0086 C
42 H42    -4.0325    -3.3789    -1.7778 H
43 H43    -1.7875    -4.7906    -2.1954 H
44 H44     1.6333    -4.8109    -2.2794 H
45 H45     3.9137    -3.4692    -1.8042 H
46 H46    -4.5213     2.1351    -0.9593 H
47 H47    -2.6744     4.0654    -0.7308 H
48 H48     2.7786     3.9353    -0.3115 H
49 H49     4.5587     1.9552    -0.5167 H
50 Co50    -0.0222    -0.3069    -0.8679 Co
51 P51    -0.0143    -0.9058     1.2748 P
52 C52    -0.5143    -2.6546     1.4285 C
53 C53     0.3836    -3.6935     1.1410 C
54 C54    -1.8463    -2.9652     1.7451 C
55 C55    -0.0320    -5.0223     1.2233 C
56 H56     1.4023    -3.4725     0.8477 H
57 C57    -2.2586    -4.2944     1.8102 C
58 H58    -2.5608    -2.1717     1.9343 H
59 C59    -1.3503    -5.3257     1.5623 C
60 H60     0.6766    -5.8168     1.0080 H
61 H61    -3.2917    -4.5229     2.0551 H
62 H62    -1.6730    -6.3613     1.6217 H
63 C63    -1.1042    -0.0651     2.5001 C
64 C64    -1.0887    -0.5729     3.8133 C
65 C65    -1.9013     1.0430     2.2116 C
66 C66    -1.8702     0.0133     4.8036 C
67 H67    -0.4680    -1.4279     4.0604 H
68 C68    -2.6847     1.6304     3.2088 C
69 H69    -1.9206     1.4533     1.2188 H
70 C70    -2.6740     1.1180     4.5032 C
71 H71    -1.8519    -0.3917     5.8112 H
72 H72    -3.3073     2.4839     2.9571 H
73 H73    -3.2857     1.5723     5.2774 H
74 C74     1.6013    -0.7236     2.1300 C
75 C75     2.2168    -1.7534     2.8547 C
76 C76     2.1670     0.5599     2.1596 C
77 C77     3.3968    -1.5100     3.5587 C
78 H78     1.7823    -2.7437     2.8859 H
79 C79     3.3439     0.7989     2.8643 C
80 H80     1.6851     1.3789     1.6404 H
81 C81     3.9694    -0.2387     3.5579 C
82 H82     3.8673    -2.3214     4.1062 H
83 H83     3.7714     1.7970     2.8628 H
84 H84     4.8913    -0.0547     4.1024 H
85 F85    -5.0882    -1.2161    -3.3132 F
86 F86    -7.7680    -1.4359    -3.0606 F
87 F87    -8.9636    -0.9424    -0.6575 F
88 F88    -7.4508    -0.2416     1.5022 F
89 F89    -4.7649    -0.0501     1.2721 F
90 F90     5.1844     0.6723    -2.7909 F
91 F91     7.8544     0.3684    -2.6025 F
92 F92     8.9203    -1.2768    -0.7030 F
93 F93     7.2767    -2.6150     1.0176 F
94 F94     4.6085    -2.3129     0.8558 F
95 H95     1.1395     4.9258    -2.1702 H
96 H96    -1.0350     4.3139     1.4843 H
97 H97    -1.0064     6.7619     1.9125 H
98 H98     1.1746     7.3828    -1.7345 H
99 C99     0.1048     8.6743     0.3776 C
100 O100     0.6253     9.5081    -0.3429 O
101 H101    -0.4090     8.9797     1.3152 H
@<TRIPOS>BOND
1 1 7 Ar
2 1 9 Ar
3 1 36 1
4 2 12 Ar
5 2 14 Ar
6 2 30 1
7 3 17 Ar
8 3 19 Ar
9 3 24 1
10 4 5 Ar
11 4 8 Ar
12 4 22 Ar
13 5 6 2
14 5 44 1
15 6 7 Ar
16 6 45 1
17 7 8 Ar
18 8 50 1
19 9 10 Ar
20 9 13 1
21 10 11 2
22 10 49 1
23 11 12 Ar
24 11 48 1
25 12 13 1
26 13 50 1
27 14 15 Ar
28 14 18 1
29 15 16 2
30 15 47 1
31 16 17 Ar
32 16 46 1
33 17 18 1
34 18 50 1
35 19 20 Ar
36 19 23 Ar
37 20 21 2
38 20 42 1
39 21 22 Ar
40 21 43 1
41 22 23 Ar
42 23 50 1
43 24 25 Ar
44 24 29 Ar
45 25 26 Ar
46 25 85 1
47 26 27 Ar
48 26 86 1
49 27 28 Ar
50 27 87 1
51 28 29 Ar
52 28 88 1
53 29 89 1
54 30 31 Ar
55 30 35 Ar
56 31 32 Ar
57 31 96 1
58 32 33 Ar
59 32 97 1
60 33 34 Ar
61 33 99 1
62 34 35 Ar
63 34 98 1
64 35 95 1
65 36 37 Ar
66 36 41 Ar
67 37 38 Ar
68 37 90 1
69 38 39 Ar
70 38 91 1
71 39 40 Ar
72 39 92 1
73 40 41 Ar
74 40 93 1
75 41 94 1
76 50 51 1
77 51 52 1
78 51 63 1
79 51 74 1
80 52 53 Ar
81 52 54 Ar
82 53 55 Ar
83 53 56 1
84 54 57 Ar
85 54 58 1
86 55 59 Ar
87 55 60 1
88 57 59 Ar
89 57 61 1
90 59 62 1
91 63 64 Ar
92 63 65 Ar
93 64 66 Ar
94 64 67 1
95 65 68 Ar
96 65 69 1
97 66 70 Ar
98 66 71 1
99 68 70 Ar
100 68 72 1
101 70 73 1
102 74 75 Ar
103 74 76 Ar
104 75 77 Ar
105 75 78 1
106 76 79 Ar
107 76 80 1
108 77 81 Ar
109 77 82 1
110 79 81 Ar
111 79 83 1
112 81 84 1
113 99 100 2
114 99 101 1
