# Co_PPh3_10F_Ph_CHO
# Created by GaussView 6.0.16
#

#
#

@<TRIPOS>MOLECULE
Molecule Name
101 114
SMALL
NO_CHARGES


@<TRIPOS>ATOM
1 C1     3.3964    -0.7524    -1.0218 C
2 C2    -0.0757     2.7110    -1.1335 C
3 C3    -3.2940    -0.9848    -0.9993 C
4 C4     0.8371    -3.2223    -0.9098 C
5 C5     1.9540    -4.1104    -0.9645 C
6 C6     3.0952    -3.3260    -0.9754 C
7 C7     2.6770    -1.9501    -0.9320 C
8 N8     1.3093    -1.9364    -0.8724 N
9 C9     2.7674     0.5087    -1.1100 C
10 C10     3.4301     1.7828    -1.1832 C
11 C11     2.4690     2.7587    -1.1825 C
12 C12     1.1895     2.1022    -1.1323 C
13 N13     1.3973     0.7319    -1.0830 N
14 C14    -1.2907     2.0052    -1.1496 C
15 C15    -2.6057     2.5655    -1.3141 C
16 C16    -3.4966     1.5260    -1.3009 C
17 C17    -2.7501     0.3108    -1.1189 C
18 N18    -1.4008     0.6318    -1.0510 N
19 C19    -2.4952    -2.1291    -0.8978 C
20 C20    -2.8205    -3.5302    -0.8701 C
21 C21    -1.6293    -4.2331    -0.8772 C
22 C22    -0.5756    -3.2693    -0.8963 C
23 N23    -1.1302    -2.0177    -0.8911 N
24 C24    -4.7701    -1.1435    -1.0148 C
25 C25    -5.4186    -1.8299    -2.0467 C
26 C26    -6.7995    -2.0004    -2.0678 C
27 C27    -7.5747    -1.4684    -1.0422 C
28 C28    -6.9623    -0.7747    -0.0029 C
29 C29    -5.5800    -0.6261     0.0004 C
30 C30    -0.1478     4.1987    -1.1178 C
31 C31    -0.7544     4.8532    -0.0383 C
32 C32    -0.8342     6.2493    -0.0018 C
33 C33    -0.3043     7.0132    -1.0530 C
34 C34     0.2962     6.3718    -2.1301 C
35 C35     0.3727     4.9752    -2.1637 C
36 C36     4.8775    -0.8219    -1.0157 C
37 C37     5.6569    -0.3448    -2.0753 C
38 C38     7.0465    -0.4066    -2.0593 C
39 C39     7.6984    -0.9742    -0.9689 C
40 C40     6.9538    -1.4713     0.0957 C
41 C41     5.5656    -1.3934     0.0612 C
42 H42    -3.8193    -3.9447    -0.8691 H
43 H43    -1.5068    -5.3082    -0.8812 H
44 H44     1.9049    -5.1903    -1.0171 H
45 H45     4.1180    -3.6706    -1.0433 H
46 H46    -4.5689     1.5816    -1.4279 H
47 H47    -2.8223     3.6144    -1.4551 H
48 H48     2.6227     3.8273    -1.2196 H
49 H49     4.5003     1.9281    -1.2121 H
50 Co50     0.0443    -0.5556    -0.7370 Co
51 P51     0.1082    -0.4117     1.4807 P
52 C52    -0.6320    -1.8888     2.2677 C
53 C53     0.0221    -3.1237     2.1151 C
54 C54    -1.8326    -1.8408     2.9899 C
55 C55    -0.5177    -4.2816     2.6703 C
56 H56     0.9587    -3.1809     1.5757 H
57 C57    -2.3741    -3.0058     3.5333 C
58 H58    -2.3487    -0.9012     3.1396 H
59 C59    -1.7220    -4.2283     3.3731 C
60 H60     0.0032    -5.2261     2.5432 H
61 H61    -3.3063    -2.9511     4.0880 H
62 H62    -2.1463    -5.1333     3.7984 H
63 C63    -0.8046     1.0320     2.1582 C
64 C64    -0.1895     1.9952     2.9715 C
65 C65    -2.1718     1.1637     1.8708 C
66 C66    -0.9275     3.0703     3.4706 C
67 H67     0.8594     1.9144     3.2252 H
68 C68    -2.9076     2.2313     2.3764 C
69 H69    -2.6709     0.4304     1.2563 H
70 C70    -2.2860     3.1930     3.1763 C
71 H71    -0.4348     3.8096     4.0952 H
72 H72    -3.9630     2.3060     2.1350 H
73 H73    -2.8576     4.0279     3.5717 H
74 C74     1.7808    -0.2569     2.2155 C
75 C75     2.2613    -1.1455     3.1889 C
76 C76     2.5748     0.8424     1.8528 C
77 C77     3.5153    -0.9484     3.7661 C
78 H78     1.6598    -1.9853     3.5111 H
79 C79     3.8248     1.0387     2.4361 C
80 H80     2.2065     1.5692     1.1427 H
81 C81     4.3034     0.1389     3.3886 C
82 H82     3.8730    -1.6491     4.5148 H
83 H83     4.4206     1.8965     2.1381 H
84 H84     5.2816     0.2855     3.8374 H
85 F85    -4.7103    -2.3387    -3.0643 F
86 F86    -7.3873    -2.6612    -3.0727 F
87 F87    -8.9020    -1.6239    -1.0538 F
88 F88    -7.7035    -0.2687     0.9913 F
89 F89    -5.0298     0.0327     1.0375 F
90 F90     5.0709     0.1913    -3.1563 F
91 F91     7.7590     0.0625    -3.0917 F
92 F92     9.0334    -1.0415    -0.9445 F
93 F93     7.5769    -2.0136     1.1507 F
94 F94     4.8919    -1.8825     1.1118 F
95 H95     0.8299     4.4778    -3.0137 H
96 H96    -1.1629     4.2689     0.7812 H
97 H97     0.7017     6.9517    -2.9541 H
98 H98    -0.3771     8.0951    -1.0057 H
99 C99    -1.4780     6.9004     1.1556 C
100 O100    -1.5987     8.1040     1.3025 O
101 H101    -1.8660     6.1944     1.9216 H
@<TRIPOS>BOND
1 1 7 Ar
2 1 9 Ar
3 1 36 1
4 2 12 Ar
5 2 14 Ar
6 2 30 1
7 3 17 Ar
8 3 19 Ar
9 3 24 1
10 4 5 Ar
11 4 8 Ar
12 4 22 Ar
13 5 6 2
14 5 44 1
15 6 7 Ar
16 6 45 1
17 7 8 Ar
18 8 50 1
19 9 10 Ar
20 9 13 1
21 10 11 2
22 10 49 1
23 11 12 Ar
24 11 48 1
25 12 13 1
26 13 50 1
27 14 15 Ar
28 14 18 Ar
29 15 16 2
30 15 47 1
31 16 17 Ar
32 16 46 1
33 17 18 1
34 18 50 1
35 19 20 Ar
36 19 23 Ar
37 20 21 2
38 20 42 1
39 21 22 Ar
40 21 43 1
41 22 23 Ar
42 23 50 1
43 24 25 Ar
44 24 29 Ar
45 25 26 Ar
46 25 85 1
47 26 27 Ar
48 26 86 1
49 27 28 Ar
50 27 87 1
51 28 29 Ar
52 28 88 1
53 29 89 1
54 30 31 Ar
55 30 35 Ar
56 31 32 Ar
57 31 96 1
58 32 33 Ar
59 32 99 1
60 33 34 Ar
61 33 98 1
62 34 35 Ar
63 34 97 1
64 35 95 1
65 36 37 Ar
66 36 41 Ar
67 37 38 Ar
68 37 90 1
69 38 39 Ar
70 38 91 1
71 39 40 Ar
72 39 92 1
73 40 41 Ar
74 40 93 1
75 41 94 1
76 50 51 1
77 51 52 1
78 51 63 1
79 51 74 1
80 52 53 Ar
81 52 54 Ar
82 53 55 Ar
83 53 56 1
84 54 57 Ar
85 54 58 1
86 55 59 Ar
87 55 60 1
88 57 59 Ar
89 57 61 1
90 59 62 1
91 63 64 Ar
92 63 65 Ar
93 64 66 Ar
94 64 67 1
95 65 68 Ar
96 65 69 1
97 66 70 Ar
98 66 71 1
99 68 70 Ar
100 68 72 1
101 70 73 1
102 74 75 Ar
103 74 76 Ar
104 75 77 Ar
105 75 78 1
106 76 79 Ar
107 76 80 1
108 77 81 Ar
109 77 82 1
110 79 81 Ar
111 79 83 1
112 81 84 1
113 99 100 2
114 99 101 1
