# Co_PPh3_10F_Ph_NNC0_Ph_TD
# Created by GaussView 6.0.16
#

#
#

@<TRIPOS>MOLECULE
Molecule Name
116 130
SMALL
NO_CHARGES


@<TRIPOS>ATOM
1 C1     0.9708     3.5427    -1.1023 C
2 C2    -1.6023    -0.6311    -1.1536 C
3 C3     2.7436    -2.9067    -1.0025 C
4 C4     3.9573     1.6175    -1.3478 C
5 C5     4.5509     2.9065    -1.5004 C
6 C6     3.5299     3.8380    -1.4040 C
7 C7     2.3022     3.1163    -1.2018 C
8 N8     2.6082     1.7829    -1.1738 N
9 C9    -0.1150     2.6420    -1.0862 C
10 C10    -1.5105     2.9905    -1.0500 C
11 C11    -2.2346     1.8309    -1.0883 C
12 C12    -1.2972     0.7389    -1.1390 C
13 N13    -0.0120     1.2578    -1.1267 N
14 C14    -0.6352    -1.6532    -1.1622 C
15 C15    -0.8763    -3.0690    -1.2393 C
16 C16     0.3410    -3.6967    -1.1719 C
17 C17     1.3529    -2.6831    -1.0716 C
18 N18     0.7304    -1.4406    -1.0781 N
19 C19     3.6782    -1.8690    -1.0743 C
20 C20     5.1134    -1.8634    -1.1631 C
21 C21     5.5149    -0.5473    -1.3091 C
22 C22     4.3336     0.2555    -1.2970 C
23 N23     3.2514    -0.5694    -1.1473 N
24 C24     3.2287    -4.3032    -0.8744 C
25 C25     3.9803    -4.9231    -1.8764 C
26 C26     4.4450    -6.2286    -1.7488 C
27 C27     4.1544    -6.9527    -0.5968 C
28 C28     3.4070    -6.3647     0.4195 C
29 C29     2.9609    -5.0559     0.2735 C
30 C30    -3.0354    -1.0332    -1.1458 C
31 C31    -3.5519    -1.8042    -0.0934 C
32 C32    -4.8909    -2.1820    -0.0813 C
33 C33    -5.7512    -1.8022    -1.1230 C
34 C34    -5.2393    -1.0215    -2.1748 C
35 C35    -3.9024    -0.6485    -2.1853 C
36 C36     0.7154     5.0008    -1.0134 C
37 C37    -0.0488     5.6925    -1.9599 C
38 C38    -0.2882     7.0595    -1.8639 C
39 C39     0.2609     7.7829    -0.8101 C
40 C40     1.0421     7.1311     0.1385 C
41 C41     1.2612     5.7624     0.0273 C
42 H42     5.7495    -2.7378    -1.1430 H
43 H43     6.5277    -0.1834    -1.4198 H
44 H44     5.6005     3.1045    -1.6730 H
45 H45     3.6181     4.9120    -1.4972 H
46 H46     0.5316    -4.7598    -1.2242 H
47 H47    -1.8468    -3.5298    -1.3521 H
48 H48    -3.3099     1.7295    -1.0775 H
49 H49    -1.9016     3.9962    -0.9995 H
50 Co50     1.5753     0.2419    -0.8786 Co
51 P51     1.7874     0.4254     1.3271 P
52 C52     3.5531     0.5748     1.7646 C
53 C53     4.2441     1.7831     1.5915 C
54 C54     4.2588    -0.5677     2.1738 C
55 C55     5.6073     1.8578     1.8767 C
56 H56     3.7304     2.6627     1.2229 H
57 C57     5.6244    -0.4908     2.4376 C
58 H58     3.7442    -1.5161     2.2805 H
59 C59     6.2995     0.7240     2.3009 C
60 H60     6.1276     2.8019     1.7447 H
61 H61     6.1608    -1.3823     2.7489 H
62 H62     7.3632     0.7825     2.5141 H
63 C63     1.1943    -0.9082     2.4499 C
64 C64     1.4849    -0.7605     3.8196 C
65 C65     0.4359    -2.0022     2.0318 C
66 C66     1.0368    -1.7031     4.7391 C
67 H67     2.0620     0.0908     4.1655 H
68 C68    -0.0148    -2.9463     2.9583 C
69 H69     0.1928    -2.1272     0.9922 H
70 C70     0.2853    -2.8023     4.3102 C
71 H71     1.2727    -1.5793     5.7922 H
72 H72    -0.5921    -3.7967     2.6077 H
73 H73    -0.0620    -3.5382     5.0298 H
74 C74     0.9094     1.8559     2.0750 C
75 C75     1.5267     2.8159     2.8868 C
76 C76    -0.4832     1.9010     1.9077 C
77 C77     0.7688     3.8256     3.4827 C
78 H78     2.5928     2.7844     3.0679 H
79 C79    -1.2357     2.9073     2.5053 C
80 H80    -0.9834     1.1480     1.3109 H
81 C81    -0.6103     3.8803     3.2878 C
82 H82     1.2648     4.5701     4.0985 H
83 H83    -2.3101     2.9320     2.3505 H
84 H84    -1.1960     4.6704     3.7491 H
85 F85     4.2663    -4.2643    -3.0083 F
86 F86     5.1593    -6.7947    -2.7297 F
87 F87     4.5919    -8.2090    -0.4656 F
88 F88     3.1347    -7.0572     1.5334 F
89 F89     2.2637    -4.5143     1.2852 F
90 F90    -0.5744     5.0430    -3.0092 F
91 F91    -1.0289     7.6855    -2.7874 F
92 F92     0.0409     9.0978    -0.7110 F
93 F93     1.5721     7.8227     1.1564 F
94 F94     2.0182     5.1809     0.9712 F
95 H95    -3.5106    -0.0578    -3.0075 H
96 H96    -2.8979    -2.0972     0.7220 H
97 H97    -5.2791    -2.7729     0.7444 H
98 H98    -5.9022    -0.7223    -2.9798 H
99 C99    -7.1469    -2.2296    -1.0795 C
100 H100    -7.4617    -2.7834    -0.1924 H
101 N101    -7.9581    -1.9599    -2.0412 N
102 N102    -9.2762    -2.3453    -1.8927 N
103 H103    -9.7211    -2.5914    -2.7691 H
104 C104   -10.1099    -2.3917    -0.7883 C
105 O105   -11.1865    -2.9751    -0.8748 O
106 C106    -9.7179    -1.6495     0.4517 C
107 C107    -9.1122    -0.3858     0.4066 C
108 C108   -10.0635    -2.2088     1.6873 C
109 C109    -8.8407     0.2985     1.5895 C
110 H110    -8.8604     0.0607    -0.5497 H
111 C111    -9.7735    -1.5300     2.8696 C
112 H112   -10.5607    -3.1732     1.7076 H
113 C113    -9.1598    -0.2764     2.8224 C
114 H114    -8.3799     1.2813     1.5493 H
115 H115   -10.0331    -1.9751     3.8258 H
116 H116    -8.9383     0.2558     3.7432 H
@<TRIPOS>BOND
1 1 7 Ar
2 1 9 Ar
3 1 36 1
4 2 12 Ar
5 2 14 Ar
6 2 30 1
7 3 17 Ar
8 3 19 Ar
9 3 24 1
10 4 5 Ar
11 4 8 Ar
12 4 22 Ar
13 5 6 2
14 5 44 1
15 6 7 Ar
16 6 45 1
17 7 8 Ar
18 8 50 1
19 9 10 Ar
20 9 13 1
21 10 11 2
22 10 49 1
23 11 12 Ar
24 11 48 1
25 12 13 1
26 13 50 1
27 14 15 Ar
28 14 18 1
29 15 16 2
30 15 47 1
31 16 17 Ar
32 16 46 1
33 17 18 1
34 18 50 1
35 19 20 Ar
36 19 23 Ar
37 20 21 2
38 20 42 1
39 21 22 Ar
40 21 43 1
41 22 23 Ar
42 23 50 1
43 24 25 Ar
44 24 29 Ar
45 25 26 Ar
46 25 85 1
47 26 27 Ar
48 26 86 1
49 27 28 Ar
50 27 87 1
51 28 29 Ar
52 28 88 1
53 29 89 1
54 30 31 Ar
55 30 35 Ar
56 31 32 Ar
57 31 96 1
58 32 33 Ar
59 32 97 1
60 33 34 Ar
61 33 99 1
62 34 35 Ar
63 34 98 1
64 35 95 1
65 36 37 Ar
66 36 41 Ar
67 37 38 Ar
68 37 90 1
69 38 39 Ar
70 38 91 1
71 39 40 Ar
72 39 92 1
73 40 41 Ar
74 40 93 1
75 41 94 1
76 50 51 1
77 51 52 1
78 51 63 1
79 51 74 1
80 52 53 Ar
81 52 54 Ar
82 53 55 Ar
83 53 56 1
84 54 57 Ar
85 54 58 1
86 55 59 Ar
87 55 60 1
88 57 59 Ar
89 57 61 1
90 59 62 1
91 63 64 Ar
92 63 65 Ar
93 64 66 Ar
94 64 67 1
95 65 68 Ar
96 65 69 1
97 66 70 Ar
98 66 71 1
99 68 70 Ar
100 68 72 1
101 70 73 1
102 74 75 Ar
103 74 76 Ar
104 75 77 Ar
105 75 78 1
106 76 79 Ar
107 76 80 1
108 77 81 Ar
109 77 82 1
110 79 81 Ar
111 79 83 1
112 81 84 1
113 99 100 1
114 99 101 2
115 101 102 1
116 102 103 1
117 102 104 1
118 104 105 2
119 104 106 1
120 106 107 Ar
121 106 108 Ar
122 107 109 Ar
123 107 110 1
124 108 111 Ar
125 108 112 1
126 109 113 Ar
127 109 114 1
128 111 113 Ar
129 111 115 1
130 113 116 1
