# Co_PPH3_Br8_TD
# Created by GaussView 6.0.16
#

#
#

@<TRIPOS>MOLECULE
Molecule Name
99 112
SMALL
NO_CHARGES


@<TRIPOS>ATOM
1 C1     3.3819    -0.4150    -0.6819 C
2 C2     0.0071     3.1703    -0.6581 C
3 C3    -3.3523    -0.4362    -0.7559 C
4 C4     0.7354    -2.8092    -0.7267 C
5 C5     1.8190    -3.7210    -0.5656 C
6 C6     2.9816    -2.9711    -0.4658 C
7 C7     2.6166    -1.5826    -0.5941 C
8 N8     1.2466    -1.5392    -0.7136 N
9 C9     2.7916     0.8592    -0.8175 C
10 C10     3.4850     2.1191    -0.9539 C
11 C11     2.5579     3.1293    -0.9022 C
12 C12     1.2508     2.5189    -0.7576 C
13 N13     1.4266     1.1441    -0.7355 N
14 C14    -1.2402     2.5204    -0.6523 C
15 C15    -2.5570     3.1232    -0.5793 C
16 C16    -3.4841     2.1121    -0.6445 C
17 C17    -2.7785     0.8524    -0.7268 C
18 N18    -1.4131     1.1428    -0.7274 N
19 C19    -2.5783    -1.6021    -0.7787 C
20 C20    -2.9359    -2.9952    -0.9036 C
21 C21    -1.7589    -3.7310    -0.9264 C
22 C22    -0.6770    -2.8130    -0.8059 C
23 N23    -1.2050    -1.5514    -0.7198 N
24 C24    -4.8347    -0.6034    -0.7563 C
25 C25    -5.5541    -0.5700    -1.9551 C
26 C26    -6.9344    -0.7580    -1.9485 C
27 C27    -7.6043    -0.9802    -0.7434 C
28 C28    -6.8875    -1.0213     0.4542 C
29 C29    -5.5062    -0.8402     0.4472 C
30 C30     4.8659    -0.5592    -0.6129 C
31 C31     5.5306    -0.4107     0.6089 C
32 C32     6.9123    -0.5744     0.6826 C
33 C33     7.6399    -0.8894    -0.4666 C
34 C34     6.9795    -1.0488    -1.6866 C
35 C35     5.5977    -0.8900    -1.7579 C
36 C36     0.0167     4.6601    -0.5513 C
37 C37     0.2027     5.2612     0.6974 C
38 C38     0.2149     6.6498     0.8106 C
39 C39     0.0471     7.4451    -0.3250 C
40 C40    -0.1342     6.8474    -1.5743 C
41 C41    -0.1516     5.4596    -1.6863 C
42 H42     7.4213    -0.4566     1.6353 H
43 H43     7.5413    -1.2991    -2.5821 H
44 H44    -7.4044    -1.1986     1.3935 H
45 H45    -7.4873    -0.7312    -2.8833 H
46 H46     0.3586     7.1124     1.7833 H
47 H47    -0.2641     7.4629    -2.4601 H
48 Co48     0.0088    -0.1209    -0.4861 Co
49 P49    -0.0618    -0.1667     1.7507 P
50 C50     0.5870    -1.7517     2.3860 C
51 C51     1.8311    -1.8468     3.0253 C
52 C52    -0.1602    -2.9239     2.1704 C
53 C53     2.3227    -3.0891     3.4245 C
54 H54     2.4171    -0.9584     3.2227 H
55 C55     0.3293    -4.1598     2.5858 C
56 H56    -1.1266    -2.8731     1.6855 H
57 C57     1.5780    -4.2471     3.2023 C
58 H58     3.2923    -3.1475     3.9100 H
59 H59    -0.2571    -5.0543     2.4031 H
60 H60     1.9687    -5.2136     3.5054 H
61 C61     0.9307     1.1704     2.5242 C
62 C62     2.2943     1.2776     2.2072 C
63 C63     0.3684     2.1052     3.4061 C
64 C64     3.0687     2.3119     2.7234 C
65 H65     2.7513     0.5563     1.5470 H
66 C66     1.1487     3.1407     3.9252 C
67 H67    -0.6726     2.0375     3.6930 H
68 C68     2.4944     3.2554     3.5777 C
69 H69     4.1154     2.3860     2.4451 H
70 H70     0.6955     3.8597     4.6014 H
71 H71     3.0932     4.0714     3.9711 H
72 C72    -1.7273     0.0296     2.4935 C
73 C73    -2.2794    -0.9145     3.3720 C
74 C74    -2.4406     1.2115     2.2371 C
75 C75    -3.5265    -0.6882     3.9562 C
76 H76    -1.7398    -1.8185     3.6202 H
77 C77    -3.6807     1.4390     2.8280 C
78 H78    -2.0127     1.9739     1.6021 H
79 C79    -4.2323     0.4842     3.6837 C
80 H80    -3.9394    -1.4311     4.6322 H
81 H81    -4.2165     2.3560     2.6054 H
82 H82    -5.2041     0.6548     4.1376 H
83 H83     0.0588     8.5281    -0.2372 H
84 H84    -0.2935     4.9886    -2.6545 H
85 H85     0.3425     4.6355     1.5737 H
86 H86     8.7178    -1.0144    -0.4109 H
87 H87    -8.6813    -1.1245    -0.7388 H
88 H88     4.9615    -0.1729     1.5029 H
89 H89     5.0785    -1.0155    -2.7033 H
90 H90    -5.0283    -0.3951    -2.8891 H
91 H91    -4.9424    -0.8745     1.3731 H
92 Br92    -4.6326    -3.7837    -1.0749 Br
93 Br93    -1.6833    -5.5909    -1.1461 Br
94 Br94     1.7641    -5.5884    -0.4428 Br
95 Br95     4.6704    -3.7369    -0.1659 Br
96 Br96    -5.3324     2.4450    -0.5437 Br
97 Br97    -3.0687     4.9179    -0.3245 Br
98 Br98     5.3186     2.4482    -1.2192 Br
99 Br99     3.0590     4.9370    -1.0530 Br
@<TRIPOS>BOND
1 1 7 Ar
2 1 9 Ar
3 1 30 1
4 2 12 Ar
5 2 14 Ar
6 2 36 1
7 3 17 Ar
8 3 19 Ar
9 3 24 1
10 4 5 Ar
11 4 8 Ar
12 4 22 Ar
13 5 6 Ar
14 5 94 1
15 6 7 Ar
16 6 95 1
17 7 8 Ar
18 8 48 1
19 9 10 Ar
20 9 13 1
21 10 11 2
22 10 98 1
23 11 12 1
24 11 99 1
25 12 13 1
26 13 48 1
27 14 15 1
28 14 18 1
29 15 16 2
30 15 97 1
31 16 17 Ar
32 16 96 1
33 17 18 1
34 18 48 1
35 19 20 Ar
36 19 23 Ar
37 20 21 Ar
38 20 92 1
39 21 22 Ar
40 21 93 1
41 22 23 Ar
42 23 48 1
43 24 25 Ar
44 24 29 Ar
45 25 26 Ar
46 25 90 1
47 26 27 Ar
48 26 45 1
49 27 28 Ar
50 27 87 1
51 28 29 Ar
52 28 44 1
53 29 91 1
54 30 31 Ar
55 30 35 Ar
56 31 32 Ar
57 31 88 1
58 32 33 Ar
59 32 42 1
60 33 34 Ar
61 33 86 1
62 34 35 Ar
63 34 43 1
64 35 89 1
65 36 37 Ar
66 36 41 Ar
67 37 38 Ar
68 37 85 1
69 38 39 Ar
70 38 46 1
71 39 40 Ar
72 39 83 1
73 40 41 Ar
74 40 47 1
75 41 84 1
76 48 49 1
77 49 50 1
78 49 61 1
79 49 72 1
80 50 51 Ar
81 50 52 Ar
82 51 53 Ar
83 51 54 1
84 52 55 Ar
85 52 56 1
86 53 57 Ar
87 53 58 1
88 55 57 Ar
89 55 59 1
90 57 60 1
91 61 62 Ar
92 61 63 Ar
93 62 64 Ar
94 62 65 1
95 63 66 Ar
96 63 67 1
97 64 68 Ar
98 64 69 1
99 66 68 Ar
100 66 70 1
101 68 71 1
102 72 73 Ar
103 72 74 Ar
104 73 75 Ar
105 73 76 1
106 74 77 Ar
107 74 78 1
108 75 79 Ar
109 75 80 1
110 77 79 Ar
111 77 81 1
112 79 82 1
