# 149g_N
# Created by GaussView 6.0.16
#

#
#

@<TRIPOS>MOLECULE
Molecule Name
112 122
SMALL
NO_CHARGES


@<TRIPOS>ATOM
1 C1     3.4764    -1.7083    -0.0843 C
2 C2    -0.0173     1.7671    -0.0544 C
3 C3    -3.3748    -1.8071    -0.1544 C
4 C4     0.7763    -4.1043    -0.2852 C
5 C5     1.7945    -4.9802     0.1409 C
6 C6     2.9849    -4.2506     0.2357 C
7 C7     2.7165    -2.9054    -0.1195 C
8 N8     1.3753    -2.8680    -0.4501 N
9 C9     2.8798    -0.4385    -0.1067 C
10 C10     3.5079     0.8456    -0.2203 C
11 C11     2.5364     1.8160    -0.2197 C
12 C12     1.2557     1.1823    -0.0970 C
13 N13     1.5103    -0.1745    -0.0525 N
14 C14    -1.2573     1.0711    -0.0349 C
15 C15    -2.5606     1.7198     0.0184 C
16 C16    -3.4967     0.7324    -0.0135 C
17 C17    -2.7795    -0.5278    -0.0783 C
18 N18    -1.4166    -0.2814    -0.0835 N
19 C19    -2.6065    -2.9882    -0.2884 C
20 C20    -2.8948    -4.3840    -0.2466 C
21 C21    -1.6845    -5.0731    -0.2733 C
22 C22    -0.6400    -4.1121    -0.3393 C
23 N23    -1.2482    -2.8885    -0.3816 N
24 C24    -4.8464    -1.9476    -0.0709 C
25 C25    -5.5911    -2.5719    -1.0776 C
26 C26    -6.9622    -2.7573    -0.9916 C
27 C27    -6.9689    -1.6425     1.1030 C
28 C28    -5.5908    -1.5060     1.0283 C
29 C29     4.9573    -1.8071    -0.0188 C
30 C30     5.6276    -2.3592     1.0752 C
31 C31     7.0054    -2.5188     1.1108 C
32 C32     7.1633    -1.4868    -1.0196 C
33 C33     5.7812    -1.3869    -1.0668 C
34 C34    -0.0548     3.2549    -0.0450 C
35 C35     0.4655     4.0093     1.0104 C
36 C36     0.4518     5.3960     1.0178 C
37 C37    -0.6805     5.3854    -1.0676 C
38 C38    -0.6085     4.0001    -1.0894 C
39 H39     1.6509    -6.0137     0.4255 H
40 H40     3.9298    -4.6215     0.6042 H
41 H41     1.0137    -2.1769    -1.0952 H
42 H42     4.5723     0.9986    -0.3206 H
43 H43     2.6865     2.8810    -0.3226 H
44 H44     0.8089    -0.8073     0.3069 H
45 H45    -2.7349     2.7848     0.0776 H
46 H46    -4.5715     0.8478    -0.0093 H
47 H47    -3.8827    -4.8182    -0.1848 H
48 H48    -1.5478    -6.1457    -0.2549 H
49 H49    -0.8400    -1.9515    -0.2778 H
50 C50    -7.7229    -2.2903     0.1014 C
51 C51    -0.1425     6.1536    -0.0137 C
52 F52    -7.5675    -3.4374    -1.9918 F
53 F53    -4.9685    -3.0530    -2.1699 F
54 F54    -4.9736    -0.8943     2.0554 F
55 F55    -7.5937    -1.1150     2.1805 F
56 F56     1.0469     3.3878     2.0535 F
57 F57     1.0537     6.0267     2.0524 F
58 F58    -1.1428     3.3683    -2.1507 F
59 F59    -1.3119     5.9968    -2.0962 F
60 F60     5.2359    -0.8156    -2.1579 F
61 F61     7.8661    -0.9751    -2.0554 F
62 F62     4.9233    -2.8159     2.1292 F
63 F63     7.5349    -3.1437     2.1870 F
64 C64     7.8443    -2.0816     0.0642 C
65 N65     9.2122    -2.2201     0.0872 N
66 C66     9.9665    -2.1708     1.3487 C
67 C67     9.9635    -2.5070    -1.1460 C
68 C68    11.3845    -1.6700     1.0741 C
69 H69    10.0041    -3.1547     1.8358 H
70 C70    11.1834    -3.3654    -0.8136 C
71 H71    10.2802    -1.5819    -1.6465 H
72 H72    11.9133    -1.5543     2.0264 H
73 H73    11.6890    -3.6462    -1.7440 H
74 N74    -9.0851    -2.4592     0.1859 N
75 C75    -9.7450    -2.6787     1.4822 C
76 C76    -9.9342    -2.4279    -1.0152 C
77 C77   -10.9975    -3.5310     1.2787 C
78 H78   -10.0116    -1.7283     1.9643 H
79 C79   -11.3202    -1.8985    -0.6464 C
80 H80   -10.0219    -3.4231    -1.4723 H
81 H81   -11.4350    -3.7637     2.2557 H
82 H82   -11.9190    -1.7982    -1.5584 H
83 N83    -0.1841     7.5286     0.0133 N
84 C84    -0.3659     8.2551     1.2803 C
85 C85    -0.1307     8.3207    -1.2242 C
86 C86    -1.1535     9.5400     1.0257 C
87 H87     0.5991     8.4922     1.7486 H
88 C88     0.4754     9.6917    -0.9240 C
89 H89    -1.1271     8.4421    -1.6709 H
90 H90    -1.3569    10.0319     1.9831 H
91 H91     0.5942    10.2438    -1.8628 H
92 H92    -0.9115     7.6103     1.9740 H
93 H93    -2.1249     9.2684     0.5953 H
94 H94     1.4815     9.5413    -0.5148 H
95 H95     0.4859     7.7840    -1.9501 H
96 H96    -9.0426    -3.1917     2.1445 H
97 H97   -10.6951    -4.4851     0.8305 H
98 H98    -9.4642    -1.7729    -1.7533 H
99 H99   -11.2042    -0.8905    -0.2306 H
100 H100    11.3161    -0.6713     0.6264 H
101 H101     9.4506    -1.4908     2.0313 H
102 H102     9.3046    -3.0395    -1.8367 H
103 H103    10.8341    -4.2952    -0.3484 H
104 C104    12.1502    -2.6256     0.1336 C
105 C105    -0.3937    10.4868     0.0737 C
106 C106   -12.0240    -2.8183     0.3738 C
107 H107    -1.1135    11.1128    -0.4661 H
108 H108     0.2446    11.1679     0.6483 H
109 H109   -12.6302    -3.5681    -0.1474 H
110 H110   -12.7154    -2.2237     0.9820 H
111 H111    12.8830    -2.0536    -0.4471 H
112 H112    12.7172    -3.3591     0.7180 H
@<TRIPOS>BOND
1 1 7 Ar
2 1 9 Ar
3 1 29 1
4 2 12 Ar
5 2 14 Ar
6 2 34 1
7 3 17 Ar
8 3 19 Ar
9 3 24 1
10 4 5 Ar
11 4 8 1
12 4 22 Ar
13 5 6 Ar
14 5 39 1
15 6 7 Ar
16 6 40 1
17 7 8 1
18 8 41 1
19 9 10 Ar
20 9 13 1
21 10 11 2
22 10 42 1
23 11 12 Ar
24 11 43 1
25 12 13 Ar
26 13 44 1
27 14 15 1
28 14 18 Ar
29 15 16 2
30 15 45 1
31 16 17 1
32 16 46 1
33 17 18 1
34 19 20 Ar
35 19 23 Ar
36 20 21 Ar
37 20 47 1
38 21 22 Ar
39 21 48 1
40 22 23 Ar
41 23 49 1
42 24 25 Ar
43 24 28 Ar
44 25 26 Ar
45 25 53 1
46 26 50 Ar
47 26 52 1
48 27 28 Ar
49 27 50 Ar
50 27 55 1
51 28 54 1
52 29 30 Ar
53 29 33 Ar
54 30 31 Ar
55 30 62 1
56 31 63 1
57 31 64 Ar
58 32 33 Ar
59 32 61 1
60 32 64 Ar
61 33 60 1
62 34 35 Ar
63 34 38 Ar
64 35 36 Ar
65 35 56 1
66 36 51 Ar
67 36 57 1
68 37 38 Ar
69 37 51 Ar
70 37 59 1
71 38 58 1
72 50 74 Ar
73 51 83 Ar
74 64 65 Ar
75 65 66 1
76 65 67 1
77 66 68 1
78 66 69 1
79 66 101 1
80 67 70 1
81 67 71 1
82 67 102 1
83 68 72 1
84 68 100 1
85 68 104 1
86 70 73 1
87 70 103 1
88 70 104 1
89 74 75 1
90 74 76 1
91 75 77 1
92 75 78 1
93 75 96 1
94 76 79 1
95 76 80 1
96 76 98 1
97 77 81 1
98 77 97 1
99 77 106 1
100 79 82 1
101 79 99 1
102 79 106 1
103 83 84 1
104 83 85 1
105 84 86 1
106 84 87 1
107 84 92 1
108 85 88 1
109 85 89 1
110 85 95 1
111 86 90 1
112 86 93 1
113 86 105 1
114 88 91 1
115 88 94 1
116 88 105 1
117 104 111 1
118 104 112 1
119 105 107 1
120 105 108 1
121 106 109 1
122 106 110 1
