# Co_PPH3_F
# Created by GaussView 6.0.16
#

#
#

@<TRIPOS>MOLECULE
Molecule Name
123 136
SMALL
NO_CHARGES


@<TRIPOS>ATOM
1 C1     3.4153    -0.9139    -0.7125 C
2 C2     0.1199     2.6928    -0.7641 C
3 C3    -3.2564    -0.8254    -1.1262 C
4 C4     0.7557    -3.2665    -0.9486 C
5 C5     1.8333    -4.2072    -1.0621 C
6 C6     3.0162    -3.4781    -0.9935 C
7 C7     2.6485    -2.0835    -0.8126 C
8 N8     1.2792    -2.0120    -0.7790 N
9 C9     2.8558     0.3798    -0.6024 C
10 C10     3.5724     1.6141    -0.3379 C
11 C11     2.6512     2.6396    -0.3412 C
12 C12     1.3537     2.0422    -0.6014 C
13 N13     1.5040     0.6706    -0.7249 N
14 C14    -1.1082     2.0707    -1.0634 C
15 C15    -2.3802     2.7173    -1.3258 C
16 C16    -3.3410     1.7260    -1.3468 C
17 C17    -2.6649     0.4580    -1.1548 C
18 N18    -1.3019     0.7001    -1.0241 N
19 C19    -2.5186    -2.0139    -1.1152 C
20 C20    -2.9138    -3.4059    -1.2423 C
21 C21    -1.7475    -4.1647    -1.2083 C
22 C22    -0.6532    -3.2454    -1.0622 C
23 N23    -1.1533    -1.9722    -1.0157 N
24 C24    -4.7363    -0.9611    -1.0175 C
25 C25    -5.5824    -1.0206    -2.1215 C
26 C26    -6.9569    -1.1853    -1.9933 C
27 C27    -7.5161    -1.3096    -0.7250 C
28 C28    -6.6967    -1.2713     0.3996 C
29 C29    -5.3244    -1.1079     0.2400 C
30 C30     4.8946    -1.0556    -0.7738 C
31 C31     5.6414    -1.5933     0.2735 C
32 C32     7.0212    -1.7405     0.2077 C
33 C33     7.6965    -1.3439    -0.9426 C
34 C34     6.9835    -0.8049    -2.0092 C
35 C35     5.6022    -0.6691    -1.9137 C
36 C36     0.0713     4.1607    -0.4960 C
37 C37    -0.2980     4.6358     0.7632 C
38 C38    -0.3551     5.9943     1.0559 C
39 C39    -0.0367     6.9207     0.0671 C
40 C40     0.3315     6.4795    -1.2001 C
41 C41     0.3792     5.1152    -1.4616 C
42 P42    -0.1562    -0.7117     1.5570 P
43 C43    -0.1615    -2.4581     2.1170 C
44 C44     0.9151    -3.0768     2.7641 C
45 C45    -1.3185    -3.2092     1.8499 C
46 C46     0.8445    -4.4255     3.1162 C
47 H47     1.8081    -2.5185     3.0096 H
48 C48    -1.3917    -4.5498     2.2195 C
49 H49    -2.1706    -2.7432     1.3691 H
50 C50    -0.3054    -5.1666     2.8429 C
51 H51     1.6905    -4.8910     3.6134 H
52 H52    -2.2954    -5.1123     2.0045 H
53 H53    -0.3584    -6.2154     3.1215 H
54 C54     1.1894     0.1670     2.4341 C
55 C55     2.5143    -0.2864     2.3396 C
56 C56     0.9201     1.3378     3.1598 C
57 C57     3.5417     0.3966     2.9875 C
58 H58     2.7519    -1.1641     1.7574 H
59 C59     1.9562     2.0318     3.7839 C
60 H60    -0.0925     1.7100     3.2396 H
61 C61     3.2675     1.5606     3.7059 C
62 H62     4.5560     0.0180     2.9146 H
63 H63     1.7320     2.9395     4.3368 H
64 H64     4.0715     2.0987     4.2001 H
65 C65    -1.6788    -0.0397     2.3379 C
66 C66    -2.2192    -0.6581     3.4784 C
67 C67    -2.2450     1.1584     1.8873 C
68 C68    -3.3213    -0.1017     4.1255 C
69 H69    -1.7847    -1.5724     3.8636 H
70 C70    -3.3433     1.7153     2.5405 C
71 H71    -1.8146     1.6786     1.0491 H
72 C72    -3.8924     1.0819     3.6545 C
73 H73    -3.7332    -0.5965     5.0004 H
74 H74    -3.7644     2.6449     2.1689 H
75 H75    -4.7546     1.5100     4.1580 H
76 Co76     0.0559    -0.5792    -0.6475 Co
77 F77     4.9524    -0.1308    -2.9548 F
78 F78     5.0286    -1.9993     1.4035 F
79 F79     7.7009    -2.2647     1.2363 F
80 F80     7.6315    -0.4158    -3.1141 F
81 F81    -0.7078     6.4157     2.2778 F
82 F82    -0.6125     3.7748     1.7463 F
83 F83     0.7356     4.7242    -2.6951 F
84 F84     0.6378     7.3695    -2.1527 F
85 F85    -7.7436    -1.2282    -3.0767 F
86 F86    -7.2319    -1.4028     1.6206 F
87 F87    -5.0761    -0.9047    -3.3595 F
88 F88    -4.5596    -1.1153     1.3420 F
89 F89    -0.0849     8.2293     0.3347 F
90 F90     9.0238    -1.4793    -1.0222 F
91 F91    -8.8363    -1.4678    -0.5865 F
92 C92     2.9944     4.0894    -0.1544 C
93 H93     2.8614     4.6596    -1.0803 H
94 H94     2.3975     4.5728     0.6236 H
95 H95     4.0426     4.2027     0.1298 H
96 C96     5.0343     1.7887    -0.0431 C
97 H97     5.4201     1.0013     0.6061 H
98 H98     5.6504     1.8031    -0.9503 H
99 H99     5.2082     2.7336     0.4770 H
100 C100     4.3950    -4.0611    -1.1028 C
101 H101     5.0245    -3.5125    -1.8101 H
102 H102     4.9159    -4.0749    -0.1379 H
103 H103     4.3492    -5.0956    -1.4528 H
104 C104     1.6976    -5.6879    -1.2411 C
105 H105     1.0626    -5.9363    -2.0975 H
106 H106     2.6679    -6.1634    -1.4056 H
107 H107     1.2533    -6.1602    -0.3567 H
108 C108    -1.6445    -5.6567    -1.2748 C
109 H109    -2.6253    -6.1294    -1.1745 H
110 H110    -1.2138    -6.0015    -2.2225 H
111 H111    -1.0132    -6.0423    -0.4683 H
112 C112    -4.2983    -3.9450    -1.4539 C
113 H113    -4.9867    -3.6805    -0.6440 H
114 H114    -4.7371    -3.5750    -2.3879 H
115 H115    -4.2828    -5.0360    -1.5216 H
116 C116    -4.8061     1.9519    -1.5826 C
117 H117    -5.1476     1.4912    -2.5154 H
118 H118    -5.4189     1.5520    -0.7690 H
119 H119    -5.0282     3.0192    -1.6493 H
120 C120    -2.6239     4.1638    -1.6548 C
121 H121    -2.5311     4.8324    -0.7918 H
122 H122    -1.9271     4.5157    -2.4210 H
123 H123    -3.6288     4.3010    -2.0607 H
@<TRIPOS>BOND
1 1 7 Ar
2 1 9 Ar
3 1 30 1
4 2 12 Ar
5 2 14 Ar
6 2 36 1
7 3 17 Ar
8 3 19 Ar
9 3 24 1
10 4 5 Ar
11 4 8 Ar
12 4 22 Ar
13 5 6 Ar
14 5 104 1
15 6 7 1
16 6 100 1
17 7 8 Ar
18 8 76 1
19 9 10 1
20 9 13 1
21 10 11 2
22 10 96 1
23 11 12 1
24 11 92 1
25 12 13 1
26 13 76 1
27 14 15 1
28 14 18 1
29 15 16 2
30 15 120 1
31 16 17 1
32 16 116 1
33 17 18 1
34 18 76 1
35 19 20 1
36 19 23 Ar
37 20 21 Ar
38 20 112 1
39 21 22 Ar
40 21 108 1
41 22 23 Ar
42 23 76 1
43 24 25 Ar
44 24 29 Ar
45 25 26 Ar
46 25 87 1
47 26 27 Ar
48 26 85 1
49 27 28 Ar
50 27 91 1
51 28 29 Ar
52 28 86 1
53 29 88 1
54 30 31 Ar
55 30 35 Ar
56 31 32 Ar
57 31 78 1
58 32 33 Ar
59 32 79 1
60 33 34 Ar
61 33 90 1
62 34 35 Ar
63 34 80 1
64 35 77 1
65 36 37 Ar
66 36 41 Ar
67 37 38 Ar
68 37 82 1
69 38 39 Ar
70 38 81 1
71 39 40 Ar
72 39 89 1
73 40 41 Ar
74 40 84 1
75 41 83 1
76 42 43 1
77 42 54 1
78 42 65 1
79 42 76 1
80 43 44 Ar
81 43 45 Ar
82 44 46 Ar
83 44 47 1
84 45 48 Ar
85 45 49 1
86 46 50 Ar
87 46 51 1
88 48 50 Ar
89 48 52 1
90 50 53 1
91 54 55 Ar
92 54 56 Ar
93 55 57 Ar
94 55 58 1
95 56 59 Ar
96 56 60 1
97 57 61 Ar
98 57 62 1
99 59 61 Ar
100 59 63 1
101 61 64 1
102 65 66 Ar
103 65 67 Ar
104 66 68 Ar
105 66 69 1
106 67 70 Ar
107 67 71 1
108 68 72 Ar
109 68 73 1
110 70 72 Ar
111 70 74 1
112 72 75 1
113 92 93 1
114 92 94 1
115 92 95 1
116 96 97 1
117 96 98 1
118 96 99 1
119 100 101 1
120 100 102 1
121 100 103 1
122 104 105 1
123 104 106 1
124 104 107 1
125 108 109 1
126 108 110 1
127 108 111 1
128 112 113 1
129 112 114 1
130 112 115 1
131 116 117 1
132 116 118 1
133 116 119 1
134 120 121 1
135 120 122 1
136 120 123 1
