# Co_PPH3_F12_O3_N7_OPT
# Created by GaussView 6.0.16
#

#
#

@<TRIPOS>MOLECULE
Molecule Name
126 139
SMALL
NO_CHARGES


@<TRIPOS>ATOM
1 C1     3.3452    -1.3839    -0.8237 C
2 C2     0.1219     2.2955    -0.7455 C
3 C3    -3.3458    -1.1434    -1.1075 C
4 C4     0.6284    -3.6762    -1.0327 C
5 C5     1.6848    -4.6234    -1.1746 C
6 C6     2.8750    -3.9182    -1.0892 C
7 C7     2.5452    -2.5343    -0.8910 C
8 N8     1.1782    -2.4378    -0.8358 N
9 C9     2.7979    -0.0898    -0.7241 C
10 C10     3.5429     1.1343    -0.5851 C
11 C11     2.6487     2.1677    -0.5439 C
12 C12     1.3335     1.5969    -0.6641 C
13 N13     1.4456     0.2228    -0.7523 N
14 C14    -1.1316     1.6922    -0.9301 C
15 C15    -2.3985     2.3604    -1.0592 C
16 C16    -3.3633     1.3924    -1.1257 C
17 C17    -2.7112     0.1124    -1.0426 C
18 N18    -1.3426     0.3273    -0.9344 N
19 C19    -2.6264    -2.3481    -1.1357 C
20 C20    -3.0367    -3.7126    -1.3220 C
21 C21    -1.8920    -4.4958    -1.3349 C
22 C22    -0.7838    -3.6203    -1.1387 C
23 N23    -1.2593    -2.3409    -1.0246 N
24 C24    -4.8260    -1.1924    -1.1871 C
25 C25    -5.5031    -1.7381    -2.2845 C
26 C26    -6.8842    -1.7930    -2.3397 C
27 C27    -7.7084    -1.2963    -1.3130 C
28 C28    -7.0290    -0.7433    -0.2172 C
29 C29    -5.6406    -0.7087    -0.1613 C
30 C30     4.8186    -1.5398    -0.8655 C
31 C31     5.5247    -2.2703     0.0971 C
32 C32     6.8997    -2.4125     0.0560 C
33 C33     7.6877    -1.8486    -0.9635 C
34 C34     6.9812    -1.1271    -1.9384 C
35 C35     5.6000    -0.9839    -1.8831 C
36 C36     0.1640     3.7739    -0.5886 C
37 C37     0.4287     4.3641     0.6473 C
38 C38     0.4744     5.7404     0.8319 C
39 C39     0.2329     6.6281    -0.2281 C
40 C40    -0.0410     6.0294    -1.4714 C
41 C41    -0.0671     4.6562    -1.6470 C
42 H42     1.5664    -5.6847    -1.3501 H
43 H43     3.8758    -4.3179    -1.1801 H
44 H44     4.6202     1.1994    -0.5273 H
45 H45     2.8635     3.2242    -0.4657 H
46 H46    -2.5383     3.4313    -1.0994 H
47 H47    -4.4273     1.5378    -1.2484 H
48 H48    -4.0550    -4.0506    -1.4558 H
49 H49    -1.8372    -5.5678    -1.4729 H
50 P50    -0.1603    -1.1208     1.5664 P
51 C51    -0.2540    -2.8363     2.2058 C
52 C52     0.6746    -3.3574     3.1181 C
53 C53    -1.3319    -3.6412     1.8018 C
54 C54     0.5434    -4.6635     3.5901 C
55 H55     1.4970    -2.7506     3.4732 H
56 C56    -1.4650    -4.9411     2.2850 C
57 H57    -2.0849    -3.2484     1.1317 H
58 C58    -0.5216    -5.4613     3.1716 C
59 H59     1.2759    -5.0517     4.2919 H
60 H60    -2.3048    -5.5457     1.9555 H
61 H61    -0.6196    -6.4788     3.5394 H
62 C62     1.2908    -0.3613     2.3846 C
63 C63     2.5453    -0.9725     2.2248 C
64 C64     1.2005     0.8191     3.1352 C
65 C65     3.6802    -0.4218     2.8159 C
66 H66     2.6375    -1.8846     1.6514 H
67 C67     2.3439     1.3801     3.7035 C
68 H68     0.2467     1.3078     3.2816 H
69 C69     3.5843     0.7611     3.5495 C
70 H70     4.6353    -0.9205     2.6905 H
71 H71     2.2573     2.3021     4.2709 H
72 H72     4.4718     1.1978     3.9989 H
73 C73    -1.6239    -0.2952     2.3066 C
74 C74    -2.5121    -0.9791     3.1496 C
75 C75    -1.8357     1.0714     2.0680 C
76 C76    -3.5932    -0.3111     3.7258 C
77 H77    -2.3671    -2.0297     3.3646 H
78 C78    -2.9127     1.7348     2.6486 C
79 H79    -1.1544     1.6245     1.4385 H
80 C80    -3.7985     1.0450     3.4774 C
81 H81    -4.2751    -0.8590     4.3698 H
82 H82    -3.0597     2.7907     2.4424 H
83 H83    -4.6449     1.5601     3.9227 H
84 Co84    -0.0111    -0.9908    -0.6445 Co
85 F85     5.0133    -0.2876    -2.8717 F
86 F86     4.8713    -2.8321     1.1366 F
87 F87     7.5287    -3.1020     1.0368 F
88 F88     7.6372    -0.5658    -2.9801 F
89 F89     0.7582     6.2117     2.0688 F
90 F90     0.6476     3.5821     1.7241 F
91 F91    -0.3443     4.1738    -2.8703 F
92 F92    -0.2908     6.8428    -2.5238 F
93 F93    -7.4862    -2.3405    -3.4217 F
94 F94    -7.7143    -0.2474     0.8423 F
95 F95    -4.8120    -2.2244    -3.3300 F
96 F96    -5.0829    -0.1829     0.9435 F
97 N97    -9.0801    -1.3294    -1.4899 N
98 H98    -9.3344    -1.9769    -2.2264 H
99 N99     9.0479    -2.0754    -0.9687 N
100 H100     9.3787    -2.4429    -0.0820 H
101 N101     0.2922     8.0053    -0.1388 N
102 H102    -0.0861     8.4528    -0.9682 H
103 C103   -10.0295    -1.3553    -0.3785 C
104 H104   -11.0274    -1.2821    -0.8270 H
105 H105    -9.8908    -0.4714     0.2457 H
106 C106    -9.9442    -2.6208     0.4760 C
107 H107    -8.9483    -2.7047     0.9215 H
108 H108   -10.6711    -2.5545     1.3007 H
109 C109    -0.1286     8.7278     1.0627 C
110 H110     0.5584     8.5277     1.8867 H
111 H111    -1.1392     8.4291     1.3814 H
112 C112    -0.1134    10.2128     0.7484 C
113 H113    -0.4455    10.7752     1.6331 H
114 H114     0.9119    10.5252     0.5039 H
115 C115    10.0093    -1.1208    -1.5205 C
116 H116     9.8916    -1.0453    -2.6027 H
117 H117     9.8738    -0.1161    -1.0922 H
118 C118    11.4060    -1.6244    -1.2045 C
119 H119    11.5675    -2.5927    -1.6997 H
120 H120    12.1460    -0.9093    -1.5919 H
121 O121    11.4991    -1.7550     0.2141 O
122 H122    12.3004    -2.2607     0.4192 H
123 O123    -0.9883    10.4198    -0.3604 O
124 H124    -0.8337    11.3121    -0.7064 H
125 O125   -10.1277    -3.8031    -0.2955 O
126 H126   -11.0582    -3.8308    -0.5719 H
@<TRIPOS>BOND
1 1 7 Ar
2 1 9 Ar
3 1 30 1
4 2 12 Ar
5 2 14 Ar
6 2 36 1
7 3 17 Ar
8 3 19 Ar
9 3 24 1
10 4 5 Ar
11 4 8 Ar
12 4 22 Ar
13 5 6 2
14 5 42 1
15 6 7 Ar
16 6 43 1
17 7 8 Ar
18 8 84 1
19 9 10 Ar
20 9 13 1
21 10 11 2
22 10 44 1
23 11 12 Ar
24 11 45 1
25 12 13 Ar
26 13 84 1
27 14 15 Ar
28 14 18 Ar
29 15 16 2
30 15 46 1
31 16 17 Ar
32 16 47 1
33 17 18 1
34 18 84 1
35 19 20 Ar
36 19 23 Ar
37 20 21 Ar
38 20 48 1
39 21 22 Ar
40 21 49 1
41 22 23 Ar
42 23 84 1
43 24 25 Ar
44 24 29 Ar
45 25 26 2
46 25 95 1
47 26 27 Ar
48 26 93 1
49 27 28 Ar
50 27 97 1
51 28 29 Ar
52 28 94 1
53 29 96 1
54 30 31 Ar
55 30 35 Ar
56 31 32 2
57 31 86 1
58 32 33 Ar
59 32 87 1
60 33 34 Ar
61 33 99 Ar
62 34 35 Ar
63 34 88 1
64 35 85 1
65 36 37 Ar
66 36 41 Ar
67 37 38 Ar
68 37 90 1
69 38 39 Ar
70 38 89 1
71 39 40 Ar
72 39 101 Ar
73 40 41 2
74 40 92 1
75 41 91 1
76 50 51 1
77 50 62 1
78 50 73 1
79 50 84 1
80 51 52 Ar
81 51 53 Ar
82 52 54 Ar
83 52 55 1
84 53 56 Ar
85 53 57 1
86 54 58 Ar
87 54 59 1
88 56 58 Ar
89 56 60 1
90 58 61 1
91 62 63 Ar
92 62 64 Ar
93 63 65 Ar
94 63 66 1
95 64 67 Ar
96 64 68 1
97 65 69 Ar
98 65 70 1
99 67 69 Ar
100 67 71 1
101 69 72 1
102 73 74 Ar
103 73 75 Ar
104 74 76 Ar
105 74 77 1
106 75 78 Ar
107 75 79 1
108 76 80 Ar
109 76 81 1
110 78 80 Ar
111 78 82 1
112 80 83 1
113 97 98 1
114 97 103 1
115 99 100 1
116 99 115 1
117 101 102 1
118 101 109 1
119 103 104 1
120 103 105 1
121 103 106 1
122 106 107 1
123 106 108 1
124 106 125 1
125 109 110 1
126 109 111 1
127 109 112 1
128 112 113 1
129 112 114 1
130 112 123 1
131 115 116 1
132 115 117 1
133 115 118 1
134 118 119 1
135 118 120 1
136 118 121 1
137 121 122 1
138 123 124 1
139 125 126 1
