# Co_PPH3_H
# Created by GaussView 6.0.16
#

#
#

@<TRIPOS>MOLECULE
Molecule Name
123 136
SMALL
NO_CHARGES


@<TRIPOS>ATOM
1 C1     3.4104    -0.5867    -1.0058 C
2 C2     0.0576     2.9768    -0.8888 C
3 C3    -3.2942    -0.5865    -1.1007 C
4 C4     0.7660    -2.9707    -1.1726 C
5 C5     1.8503    -3.8945    -1.3341 C
6 C6     3.0273    -3.1497    -1.3044 C
7 C7     2.6496    -1.7621    -1.0957 C
8 N8     1.2777    -1.7117    -1.0201 N
9 C9     2.8333     0.6981    -0.8683 C
10 C10     3.5283     1.9317    -0.5397 C
11 C11     2.5777     2.9213    -0.3969 C
12 C12     1.2939     2.3267    -0.7211 C
13 N13     1.4702     0.9678    -0.9401 N
14 C14    -1.1656     2.3339    -1.1694 C
15 C15    -2.4517     2.9569    -1.4255 C
16 C16    -3.4036     1.9585    -1.3757 C
17 C17    -2.7099     0.6997    -1.1726 C
18 N18    -1.3451     0.9614    -1.0956 N
19 C19    -2.5406    -1.7680    -1.1084 C
20 C20    -2.9188    -3.1692    -1.1734 C
21 C21    -1.7384    -3.9079    -1.2453 C
22 C22    -0.6519    -2.9714    -1.2029 C
23 N23    -1.1672    -1.7068    -1.1252 N
24 C24    -4.7779    -0.7168    -0.9921 C
25 C25    -5.5794    -0.9302    -2.1190 C
26 C26    -6.9610    -1.0741    -1.9900 C
27 C27    -7.5570    -1.0113    -0.7287 C
28 C28    -6.7637    -0.8039     0.4023 C
29 C29    -5.3820    -0.6582     0.2708 C
30 C30     4.8954    -0.7286    -1.0174 C
31 C31     5.5703    -1.2226     0.1071 C
32 C32     6.9576    -1.3659     0.1007 C
33 C33     7.6897    -1.0280    -1.0396 C
34 C34     7.0258    -0.5462    -2.1700 C
35 C35     5.6386    -0.3956    -2.1567 C
36 C36     0.0260     4.4628    -0.7391 C
37 C37    -0.5386     5.0429     0.4044 C
38 C38    -0.5667     6.4287     0.5602 C
39 C39    -0.0383     7.2548    -0.4344 C
40 C40     0.5217     6.6862    -1.5806 C
41 C41     0.5574     5.2997    -1.7281 C
42 P42    -0.0807    -0.4306     1.4020 P
43 C43     0.0784    -2.1467     2.0318 C
44 C44     1.1687    -2.5974     2.7880 C
45 C45    -0.9526    -3.0502     1.7257 C
46 C46     1.2387    -3.9271     3.2043 C
47 H47     1.9612    -1.9170     3.0695 H
48 C48    -0.8885    -4.3730     2.1594 C
49 H49    -1.8205    -2.7174     1.1712 H
50 C50     0.2144    -4.8201     2.8881 C
51 H51     2.0934    -4.2591     3.7868 H
52 H52    -1.7001    -5.0521     1.9160 H
53 H53     0.2706    -5.8545     3.2156 H
54 C54     1.2226     0.5481     2.2398 C
55 C55     2.5673     0.1740     2.0837 C
56 C56     0.9189     1.6892     2.9966 C
57 C57     3.5807     0.9117     2.6922 C
58 H58     2.8223    -0.6865     1.4801 H
59 C59     1.9388     2.4383     3.5830 C
60 H60    -0.1110     1.9941     3.1346 H
61 C61     3.2711     2.0504     3.4363 C
62 H62     4.6143     0.6049     2.5646 H
63 H63     1.6875     3.3236     4.1602 H
64 H64     4.0638     2.6331     3.8969 H
65 C65    -1.6467     0.1611     2.1683 C
66 C66    -2.3037    -0.5738     3.1671 C
67 C67    -2.1658     1.4123     1.8018 C
68 C68    -3.4653    -0.0779     3.7619 C
69 H69    -1.9160    -1.5327     3.4866 H
70 C70    -3.3195     1.9096     2.4043 C
71 H71    -1.6637     2.0054     1.0517 H
72 C72    -3.9793     1.1622     3.3810 C
73 H73    -3.9644    -0.6648     4.5276 H
74 H74    -3.7059     2.8758     2.0938 H
75 H75    -4.8858     1.5440     3.8422 H
76 Co76     0.0444    -0.3017    -0.8024 Co
77 C77     2.8668     4.3086     0.1056 C
78 H78     3.0216     5.0379    -0.6981 H
79 H79     2.0595     4.6903     0.7311 H
80 H80     3.7721     4.3041     0.7198 H
81 C81     4.9999     2.1422    -0.3325 C
82 H82     5.4396     1.4078     0.3456 H
83 H83     5.5615     2.0756    -1.2702 H
84 H84     5.1894     3.1341     0.0846 H
85 C85     4.4059    -3.7091    -1.5073 C
86 H86     5.0012    -3.0972    -2.1901 H
87 H87     4.9759    -3.7793    -0.5732 H
88 H88     4.3539    -4.7167    -1.9305 H
89 C89     1.7283    -5.3755    -1.5251 C
90 H90     1.0142    -5.6246    -2.3165 H
91 H91     2.6871    -5.8257    -1.7966 H
92 H92     1.3865    -5.8739    -0.6091 H
93 C93    -1.6145    -5.3992    -1.3133 C
94 H94    -2.5689    -5.8903    -1.1033 H
95 H95    -1.2885    -5.7423    -2.3032 H
96 H96    -0.8868    -5.7710    -0.5855 H
97 C97    -4.3043    -3.7471    -1.1704 C
98 H98    -4.9304    -3.3164    -0.3841 H
99 H99    -4.8294    -3.5765    -2.1176 H
100 H100    -4.2711    -4.8292    -1.0119 H
101 C101    -4.8784     2.1910    -1.5394 C
102 H102    -5.2862     1.7009    -2.4292 H
103 H103    -5.4482     1.8142    -0.6857 H
104 H104    -5.0882     3.2604    -1.6231 H
105 C105    -2.7423     4.3903    -1.7795 C
106 H106    -2.8882     5.0314    -0.9022 H
107 H107    -1.9343     4.8357    -2.3611 H
108 H108    -3.6501     4.4533    -2.3869 H
109 H109     0.9323     7.3233    -2.3593 H
110 H110    -0.0626     8.3346    -0.3169 H
111 H111    -1.0009     6.8643     1.4563 H
112 H112    -0.9475     4.3974     1.1766 H
113 H113     0.9971     4.8540    -2.6157 H
114 H114     5.1199    -0.0160    -3.0324 H
115 H115     7.5885    -0.2878    -3.0629 H
116 H116     8.7700    -1.1424    -1.0484 H
117 H117     7.4664    -1.7456     0.9828 H
118 H118     4.9983    -1.4962     0.9890 H
119 H119    -5.1137    -0.9803    -3.0991 H
120 H120    -7.5718    -1.2372    -2.8739 H
121 H121    -8.6330    -1.1240    -0.6278 H
122 H122    -7.2203    -0.7555     1.3874 H
123 H123    -4.7616    -0.4939     1.1462 H
@<TRIPOS>BOND
1 1 7 Ar
2 1 9 Ar
3 1 30 1
4 2 12 Ar
5 2 14 Ar
6 2 36 1
7 3 17 Ar
8 3 19 Ar
9 3 24 1
10 4 5 Ar
11 4 8 Ar
12 4 22 Ar
13 5 6 Ar
14 5 89 1
15 6 7 1
16 6 85 1
17 7 8 Ar
18 8 76 1
19 9 10 1
20 9 13 1
21 10 11 2
22 10 81 1
23 11 12 1
24 11 77 1
25 12 13 1
26 13 76 1
27 14 15 1
28 14 18 1
29 15 16 2
30 15 105 1
31 16 17 1
32 16 101 1
33 17 18 1
34 18 76 1
35 19 20 1
36 19 23 Ar
37 20 21 Ar
38 20 97 1
39 21 22 Ar
40 21 93 1
41 22 23 Ar
42 23 76 1
43 24 25 Ar
44 24 29 Ar
45 25 26 Ar
46 25 119 1
47 26 27 Ar
48 26 120 1
49 27 28 Ar
50 27 121 1
51 28 29 Ar
52 28 122 1
53 29 123 1
54 30 31 Ar
55 30 35 Ar
56 31 32 Ar
57 31 118 1
58 32 33 Ar
59 32 117 1
60 33 34 Ar
61 33 116 1
62 34 35 Ar
63 34 115 1
64 35 114 1
65 36 37 Ar
66 36 41 Ar
67 37 38 Ar
68 37 112 1
69 38 39 Ar
70 38 111 1
71 39 40 Ar
72 39 110 1
73 40 41 Ar
74 40 109 1
75 41 113 1
76 42 43 1
77 42 54 1
78 42 65 1
79 42 76 1
80 43 44 Ar
81 43 45 Ar
82 44 46 Ar
83 44 47 1
84 45 48 Ar
85 45 49 1
86 46 50 Ar
87 46 51 1
88 48 50 Ar
89 48 52 1
90 50 53 1
91 54 55 Ar
92 54 56 Ar
93 55 57 Ar
94 55 58 1
95 56 59 Ar
96 56 60 1
97 57 61 Ar
98 57 62 1
99 59 61 Ar
100 59 63 1
101 61 64 1
102 65 66 Ar
103 65 67 Ar
104 66 68 Ar
105 66 69 1
106 67 70 Ar
107 67 71 1
108 68 72 Ar
109 68 73 1
110 70 72 Ar
111 70 74 1
112 72 75 1
113 77 78 1
114 77 79 1
115 77 80 1
116 81 82 1
117 81 83 1
118 81 84 1
119 85 86 1
120 85 87 1
121 85 88 1
122 89 90 1
123 89 91 1
124 89 92 1
125 93 94 1
126 93 95 1
127 93 96 1
128 97 98 1
129 97 99 1
130 97 100 1
131 101 102 1
132 101 103 1
133 101 104 1
134 105 106 1
135 105 107 1
136 105 108 1
