# Co_PPh3_Me8_TD
# Created by GaussView 6.0.16
#

#
#

@<TRIPOS>MOLECULE
Molecule Name
123 136
SMALL
NO_CHARGES


@<TRIPOS>ATOM
1 C1     3.4133    -0.5807    -1.0054 C
2 C2     0.0551     2.9791    -0.8867 C
3 C3    -3.2916    -0.5899    -1.1043 C
4 C4     0.7723    -2.9682    -1.1685 C
5 C5     1.8584    -3.8923    -1.3167 C
6 C6     3.0346    -3.1468    -1.2818 C
7 C7     2.6542    -1.7577    -1.0876 C
8 N8     1.2819    -1.7078    -1.0202 N
9 C9     2.8348     0.7044    -0.8771 C
10 C10     3.5310     1.9420    -0.5665 C
11 C11     2.5802     2.9308    -0.4210 C
12 C12     1.2941     2.3315    -0.7279 C
13 N13     1.4708     0.9717    -0.9402 N
14 C14    -1.1686     2.3352    -1.1625 C
15 C15    -2.4567     2.9569    -1.4133 C
16 C16    -3.4061     1.9559    -1.3697 C
17 C17    -2.7095     0.6977    -1.1724 C
18 N18    -1.3452     0.9619    -1.0944 N
19 C19    -2.5360    -1.7700    -1.1111 C
20 C20    -2.9121    -3.1718    -1.1774 C
21 C21    -1.7304    -3.9088    -1.2473 C
22 C22    -0.6454    -2.9707    -1.2023 C
23 N23    -1.1626    -1.7067    -1.1253 N
24 C24    -4.7753    -0.7238    -1.0002 C
25 C25    -5.5730    -0.9366    -2.1300 C
26 C26    -6.9546    -1.0843    -2.0054 C
27 C27    -7.5545    -1.0258    -0.7457 C
28 C28    -6.7649    -0.8190     0.3881 C
29 C29    -5.3832    -0.6697     0.2609 C
30 C30     4.8990    -0.7220    -1.0181 C
31 C31     5.5795    -1.1759     0.1194 C
32 C32     6.9666    -1.3226     0.1099 C
33 C33     7.6926    -1.0269    -1.0459 C
34 C34     7.0229    -0.5848    -2.1890 C
35 C35     5.6359    -0.4316    -2.1730 C
36 C36     0.0222     4.4650    -0.7353 C
37 C37    -0.5251     5.0424     0.4178 C
38 C38    -0.5554     6.4282     0.5748 C
39 C39    -0.0462     7.2565    -0.4279 C
40 C40     0.4973     6.6904    -1.5833 C
41 C41     0.5349     5.3041    -1.7323 C
42 P42    -0.0848    -0.4310     1.4018 P
43 C43     0.0889    -2.1465     2.0285 C
44 C44     1.1878    -2.5891     2.7771 C
45 C45    -0.9352    -3.0588     1.7251 C
46 C46     1.2723    -3.9190     3.1898 C
47 H47     1.9760    -1.9020     3.0546 H
48 C48    -0.8567    -4.3819     2.1558 C
49 H49    -1.8084    -2.7330     1.1748 H
50 C50     0.2540    -4.8204     2.8777 C
51 H51     2.1334    -4.2446     3.7665 H
52 H52    -1.6633    -5.0680     1.9152 H
53 H53     0.3212    -5.8549     3.2028 H
54 C54     1.2050     0.5570     2.2500 C
55 C55     2.5549     0.2067     2.0833 C
56 C56     0.8859     1.6779     3.0303 C
57 C57     3.5588     0.9506     2.6999 C
58 H58     2.8209    -0.6408     1.4661 H
59 C59     1.8959     2.4316     3.6282 C
60 H60    -0.1480     1.9638     3.1779 H
61 C61     3.2338     2.0694     3.4675 C
62 H62     4.5968     0.6634     2.5624 H
63 H63     1.6324     3.3007     4.2241 H
64 H64     4.0188     2.6563     3.9356 H
65 C65    -1.6584     0.1469     2.1625 C
66 C66    -2.3187    -0.5965     3.1527 C
67 C67    -2.1783     1.3998     1.8029 C
68 C68    -3.4838    -0.1069     3.7460 C
69 H69    -1.9306    -1.5568     3.4676 H
70 C70    -3.3352     1.8909     2.4041 C
71 H71    -1.6734     1.9997     1.0599 H
72 C72    -3.9980     1.1353     3.3725 C
73 H73    -3.9853    -0.7004     4.5051 H
74 H74    -3.7215     2.8590     2.0994 H
75 H75    -4.9069     1.5124     3.8328 H
76 Co76     0.0466    -0.2994    -0.8024 Co
77 H77    -0.9766     6.8618     1.4780 H
78 H78    -0.9183     4.3950     1.1966 H
79 H79     0.9617     4.8602    -2.6270 H
80 H80     0.8932     7.3293    -2.3681 H
81 H81    -0.0723     8.3362    -0.3094 H
82 H82     5.1126    -0.0836    -3.0590 H
83 H83     7.5806    -0.3593    -3.0939 H
84 H84     7.4801    -1.6713     1.0020 H
85 H85     5.0124    -1.4174     1.0137 H
86 H86     8.7727    -1.1437    -1.0568 H
87 H87    -8.6305    -1.1414    -0.6481 H
88 H88    -7.2245    -0.7740     1.3720 H
89 H89    -4.7658    -0.5058     1.1384 H
90 H90    -7.5625    -1.2469    -2.8914 H
91 H91    -5.1044    -0.9834    -3.1089 H
92 C92     4.4164    -3.7075    -1.4574 C
93 H93     5.0168    -3.1139    -2.1516 H
94 H94     4.9768    -3.7487    -0.5160 H
95 H95     4.3711    -4.7272    -1.8514 H
96 C96     1.7388    -5.3747    -1.4987 C
97 H97     1.0285    -5.6292    -2.2917 H
98 H98     2.6991    -5.8254    -1.7637 H
99 H99     1.3937    -5.8679    -0.5811 H
100 C100    -1.6045    -5.3998    -1.3172 C
101 H101    -2.5594    -5.8923    -1.1124 H
102 H102    -1.2739    -5.7407    -2.3064 H
103 H103    -0.8796    -5.7723    -0.5871 H
104 C104    -4.2967    -3.7519    -1.1782 C
105 H105    -4.9253    -3.3230    -0.3929 H
106 H106    -4.8197    -3.5815    -2.1264 H
107 H107    -4.2620    -4.8341    -1.0203 H
108 C108    -4.8816     2.1844    -1.5322 C
109 H109    -5.2882     1.6941    -2.4225 H
110 H110    -5.4499     1.8047    -0.6788 H
111 H111    -5.0951     3.2530    -1.6145 H
112 C112    -2.7510     4.3924    -1.7549 C
113 H113    -2.8784     5.0294    -0.8718 H
114 H114    -1.9532     4.8391    -2.3496 H
115 H115    -3.6698     4.4606    -2.3447 H
116 C116     2.8721     4.3213     0.0714 C
117 H117     3.0007     5.0509    -0.7365 H
118 H118     2.0775     4.6973     0.7167 H
119 H119     3.7919     4.3243     0.6633 H
120 C120     5.0048     2.1567    -0.3800 C
121 H121     5.4439     1.4631     0.3413 H
122 H122     5.5615     2.0269    -1.3135 H
123 H123     5.2023     3.1717    -0.0276 H
@<TRIPOS>BOND
1 1 7 Ar
2 1 9 Ar
3 1 30 1
4 2 12 Ar
5 2 14 Ar
6 2 36 1
7 3 17 Ar
8 3 19 Ar
9 3 24 1
10 4 5 Ar
11 4 8 Ar
12 4 22 Ar
13 5 6 Ar
14 5 96 1
15 6 7 1
16 6 92 1
17 7 8 Ar
18 8 76 1
19 9 10 1
20 9 13 1
21 10 11 2
22 10 120 1
23 11 12 1
24 11 116 1
25 12 13 1
26 13 76 1
27 14 15 1
28 14 18 1
29 15 16 2
30 15 112 1
31 16 17 1
32 16 108 1
33 17 18 1
34 18 76 1
35 19 20 1
36 19 23 Ar
37 20 21 Ar
38 20 104 1
39 21 22 Ar
40 21 100 1
41 22 23 Ar
42 23 76 1
43 24 25 Ar
44 24 29 Ar
45 25 26 Ar
46 25 91 1
47 26 27 Ar
48 26 90 1
49 27 28 Ar
50 27 87 1
51 28 29 Ar
52 28 88 1
53 29 89 1
54 30 31 Ar
55 30 35 Ar
56 31 32 Ar
57 31 85 1
58 32 33 Ar
59 32 84 1
60 33 34 Ar
61 33 86 1
62 34 35 Ar
63 34 83 1
64 35 82 1
65 36 37 Ar
66 36 41 Ar
67 37 38 Ar
68 37 78 1
69 38 39 Ar
70 38 77 1
71 39 40 Ar
72 39 81 1
73 40 41 Ar
74 40 80 1
75 41 79 1
76 42 43 1
77 42 54 1
78 42 65 1
79 42 76 1
80 43 44 Ar
81 43 45 Ar
82 44 46 Ar
83 44 47 1
84 45 48 Ar
85 45 49 1
86 46 50 Ar
87 46 51 1
88 48 50 Ar
89 48 52 1
90 50 53 1
91 54 55 Ar
92 54 56 Ar
93 55 57 Ar
94 55 58 1
95 56 59 Ar
96 56 60 1
97 57 61 Ar
98 57 62 1
99 59 61 Ar
100 59 63 1
101 61 64 1
102 65 66 Ar
103 65 67 Ar
104 66 68 Ar
105 66 69 1
106 67 70 Ar
107 67 71 1
108 68 72 Ar
109 68 73 1
110 70 72 Ar
111 70 74 1
112 72 75 1
113 92 93 1
114 92 94 1
115 92 95 1
116 96 97 1
117 96 98 1
118 96 99 1
119 100 101 1
120 100 102 1
121 100 103 1
122 104 105 1
123 104 106 1
124 104 107 1
125 108 109 1
126 108 110 1
127 108 111 1
128 112 113 1
129 112 114 1
130 112 115 1
131 116 117 1
132 116 118 1
133 116 119 1
134 120 121 1
135 120 122 1
136 120 123 1
