# Co_Pph3_N6_O2_OPT
# Created by GaussView 6.0.16
#

#
#

@<TRIPOS>MOLECULE
Molecule Name
117 130
SMALL
NO_CHARGES


@<TRIPOS>ATOM
1 C1     3.3316    -0.5671    -0.8386 C
2 C2     0.1543     3.1610    -0.6898 C
3 C3    -3.3518    -0.2458    -1.1157 C
4 C4     0.5912    -2.8234    -1.0826 C
5 C5     1.6380    -3.7837    -1.2151 C
6 C6     2.8354    -3.0951    -1.1079 C
7 C7     2.5202    -1.7074    -0.9080 C
8 N8     1.1538    -1.5932    -0.8717 N
9 C9     2.7995     0.7340    -0.7399 C
10 C10     3.5641     1.9472    -0.6241 C
11 C11     2.6847     2.9921    -0.5598 C
12 C12     1.3573     2.4393    -0.6369 C
13 N13     1.4511     1.0633    -0.7370 N
14 C14    -1.1067     2.5702    -0.8818 C
15 C15    -2.3725     3.2486    -0.9807 C
16 C16    -3.3444     2.2893    -1.0767 C
17 C17    -2.7025     1.0037    -1.0304 C
18 N18    -1.3322     1.2039    -0.9225 N
19 C19    -2.6475    -1.4573    -1.1591 C
20 C20    -3.0743    -2.8152    -1.3640 C
21 C21    -1.9392    -3.6102    -1.3935 C
22 C22    -0.8193    -2.7501    -1.1884 C
23 N23    -1.2802    -1.4674    -1.0532 N
24 C24    -4.8319    -0.2801    -1.2064 C
25 C25    -5.5022    -0.8015    -2.3197 C
26 C26    -6.8829    -0.8524    -2.3864 C
27 C27    -7.7137    -0.3745    -1.3562 C
28 C28    -7.0414     0.1570    -0.2455 C
29 C29    -5.6533     0.1858    -0.1778 C
30 C30     4.8045    -0.7374    -0.8738 C
31 C31     5.5015    -1.4283     0.1231 C
32 C32     6.8758    -1.5811     0.0936 C
33 C33     7.6708    -1.0638    -0.9450 C
34 C34     6.9729    -0.3793    -1.9523 C
35 C35     5.5922    -0.2261    -1.9089 C
36 C36     0.2248     4.6414    -0.5265 C
37 C37     0.6859     5.1923     0.6796 C
38 C38     0.7558     6.5749     0.8494 C
39 C39     0.3641     7.4292    -0.1834 C
40 C40    -0.0939     6.8917    -1.3881 C
41 C41    -0.1611     5.5087    -1.5592 C
42 H42     1.5083    -4.8427    -1.3968 H
43 H43     3.8328    -3.5060    -1.1873 H
44 H44     4.6434     1.9987    -0.6010 H
45 H45     2.9160     4.0451    -0.4929 H
46 H46    -2.5059     4.3204    -0.9791 H
47 H47    -4.4082     2.4465    -1.1861 H
48 H48    -4.0968    -3.1396    -1.4979 H
49 H49    -1.8969    -4.6806    -1.5473 H
50 P50    -0.1881    -0.3274     1.5557 P
51 C51    -0.1926    -2.0667     2.1314 C
52 C52     0.7967    -2.6032     2.9667 C
53 C53    -1.2685    -2.8815     1.7416 C
54 C54     0.7244    -3.9338     3.3795 C
55 H55     1.6195    -1.9905     3.3110 H
56 C56    -1.3423    -4.2061     2.1659 C
57 H57    -2.0648    -2.4770     1.1297 H
58 C58    -0.3402    -4.7404     2.9768 C
59 H59     1.5021    -4.3345     4.0233 H
60 H60    -2.1816    -4.8186     1.8504 H
61 H61    -0.3927    -5.7765     3.2990 H
62 C62     1.2128     0.4935     2.3992 C
63 C63     2.5042    -0.0281     2.2235 C
64 C64     1.0436     1.6476     3.1780 C
65 C65     3.6016     0.5837     2.8251 C
66 H66     2.6551    -0.9152     1.6246 H
67 C67     2.1486     2.2674     3.7626 C
68 H68     0.0560     2.0626     3.3368 H
69 C69     3.4282     1.7382     3.5891 C
70 H70     4.5883     0.1546     2.6848 H
71 H71     2.0030     3.1616     4.3621 H
72 H72     4.2852     2.2213     4.0498 H
73 C73    -1.6852     0.3828     2.3499 C
74 C74    -2.4235    -0.3432     3.2975 C
75 C75    -2.0541     1.7088     2.0793 C
76 C76    -3.5139     0.2426     3.9409 C
77 H77    -2.1537    -1.3627     3.5407 H
78 C78    -3.1371     2.2930     2.7311 C
79 H79    -1.4909     2.2954     1.3685 H
80 C80    -3.8752     1.5599     3.6608 C
81 H81    -4.0782    -0.3371     4.6659 H
82 H82    -3.4092     3.3172     2.4947 H
83 H83    -4.7282     2.0108     4.1598 H
84 Co84    -0.0195    -0.1366    -0.6488 Co
85 F85     5.0124     0.4375    -2.9237 F
86 F86     4.8383    -1.9352     1.1845 F
87 F87     7.4969    -2.2316     1.1056 F
88 F88     7.6370     0.1367    -3.0119 F
89 F89    -7.4778    -1.3778    -3.4833 F
90 F90    -7.7338     0.6346     0.8177 F
91 F91    -4.8042    -1.2684    -3.3696 F
92 F92    -5.1029     0.6877     0.9414 F
93 N93    -9.0843    -0.4021    -1.5431 N
94 H94    -9.3338    -1.0355    -2.2932 H
95 N95     9.0306    -1.2965    -0.9353 N
96 H96     9.3536    -1.6361    -0.0345 H
97 C97   -10.0415    -0.4484    -0.4390 C
98 H98   -11.0361    -0.3743    -0.8943 H
99 H99    -9.9126     0.4276     0.1985 H
100 C100    -9.9560    -1.7250     0.3991 C
101 H101    -8.9661    -1.8056     0.8582 H
102 H102   -10.6956    -1.6773     1.2138 H
103 C103     9.9970    -0.3560    -1.5032 C
104 H104     9.8865    -0.3060    -2.5876 H
105 H105     9.8594     0.6586    -1.0996 H
106 C106    11.3911    -0.8533    -1.1664 C
107 H107    11.5560    -1.8317    -1.6399 H
108 H108    12.1343    -0.1466    -1.5631 H
109 O109    11.4739    -0.9541     0.2553 O
110 H110    12.2720    -1.4578     0.4769 H
111 O111   -10.1166    -2.8980    -0.3914 O
112 H112   -11.0428    -2.9314    -0.6813 H
113 H113     1.1137     6.9847     1.7901 H
114 H114     0.9891     4.5266     1.4826 H
115 H115    -0.5054     5.0913    -2.5007 H
116 H116    -0.3928     7.5495    -2.1997 H
117 H117     0.4175     8.5063    -0.0515 H
@<TRIPOS>BOND
1 1 7 Ar
2 1 9 Ar
3 1 30 1
4 2 12 Ar
5 2 14 Ar
6 2 36 1
7 3 17 Ar
8 3 19 Ar
9 3 24 1
10 4 5 Ar
11 4 8 Ar
12 4 22 Ar
13 5 6 2
14 5 42 1
15 6 7 Ar
16 6 43 1
17 7 8 Ar
18 8 84 1
19 9 10 Ar
20 9 13 1
21 10 11 2
22 10 44 1
23 11 12 Ar
24 11 45 1
25 12 13 1
26 13 84 1
27 14 15 Ar
28 14 18 1
29 15 16 2
30 15 46 1
31 16 17 Ar
32 16 47 1
33 17 18 1
34 18 84 1
35 19 20 Ar
36 19 23 Ar
37 20 21 Ar
38 20 48 1
39 21 22 Ar
40 21 49 1
41 22 23 Ar
42 23 84 1
43 24 25 Ar
44 24 29 Ar
45 25 26 2
46 25 91 1
47 26 27 Ar
48 26 89 1
49 27 28 Ar
50 27 93 1
51 28 29 Ar
52 28 90 1
53 29 92 1
54 30 31 Ar
55 30 35 Ar
56 31 32 2
57 31 86 1
58 32 33 Ar
59 32 87 1
60 33 34 Ar
61 33 95 Ar
62 34 35 Ar
63 34 88 1
64 35 85 1
65 36 37 Ar
66 36 41 Ar
67 37 38 Ar
68 37 114 1
69 38 39 Ar
70 38 113 1
71 39 40 Ar
72 39 117 1
73 40 41 Ar
74 40 116 1
75 41 115 1
76 50 51 1
77 50 62 1
78 50 73 1
79 50 84 1
80 51 52 Ar
81 51 53 Ar
82 52 54 Ar
83 52 55 1
84 53 56 Ar
85 53 57 1
86 54 58 Ar
87 54 59 1
88 56 58 Ar
89 56 60 1
90 58 61 1
91 62 63 Ar
92 62 64 Ar
93 63 65 Ar
94 63 66 1
95 64 67 Ar
96 64 68 1
97 65 69 Ar
98 65 70 1
99 67 69 Ar
100 67 71 1
101 69 72 1
102 73 74 Ar
103 73 75 Ar
104 74 76 Ar
105 74 77 1
106 75 78 Ar
107 75 79 1
108 76 80 Ar
109 76 81 1
110 78 80 Ar
111 78 82 1
112 80 83 1
113 93 94 1
114 93 97 1
115 95 96 1
116 95 103 1
117 97 98 1
118 97 99 1
119 97 100 1
120 100 101 1
121 100 102 1
122 100 111 1
123 103 104 1
124 103 105 1
125 103 106 1
126 106 107 1
127 106 108 1
128 106 109 1
129 109 110 1
130 111 112 1
