# Cu_F6_OPT
# Created by GaussView 6.0.16
#

#
#

@<TRIPOS>MOLECULE
Molecule Name
71 81
SMALL
NO_CHARGES


@<TRIPOS>ATOM
1 C1    -3.3603     0.6821    -0.0106 C
2 C2    -0.0000    -2.9067    -0.0000 C
3 C3     3.3603     0.6821     0.0105 C
4 C4    -0.7094     3.0606    -0.0139 C
5 C5    -1.7915     3.9784     0.1308 C
6 C6    -2.9595     3.2355     0.1094 C
7 C7    -2.5940     1.8516    -0.0301 C
8 N8    -1.2267     1.8055    -0.1777 N
9 C9    -2.7716    -0.6039    -0.0261 C
10 C10    -3.4620    -1.8479    -0.2237 C
11 C11    -2.5276    -2.8499    -0.2293 C
12 C12    -1.2428    -2.2453    -0.0140 C
13 N13    -1.4222    -0.8817     0.1480 N
14 C14     1.2428    -2.2453     0.0139 C
15 C15     2.5276    -2.8499     0.2290 C
16 C16     3.4620    -1.8480     0.2234 C
17 C17     2.7716    -0.6039     0.0260 C
18 N18     1.4222    -0.8817    -0.1480 N
19 C19     2.5940     1.8516     0.0300 C
20 C20     2.9595     3.2355    -0.1093 C
21 C21     1.7916     3.9784    -0.1306 C
22 C22     0.7095     3.0606     0.0140 C
23 N23     1.2267     1.8055     0.1777 N
24 C24     4.8439     0.8079     0.0003 C
25 C25     5.4977     1.3690    -1.1063 C
26 C26     6.8830     1.5126    -1.1157 C
27 C27     7.6322     1.0907    -0.0157 C
28 C28     6.9941     0.5307     1.0943 C
29 C29     5.6093     0.3931     1.1009 C
30 C30    -4.8439     0.8079    -0.0003 C
31 C31    -5.4977     1.3687     1.1064 C
32 C32    -6.8830     1.5123     1.1159 C
33 C33    -7.6321     1.0908     0.0158 C
34 C34    -6.9941     0.5310    -1.0944 C
35 C35    -5.6093     0.3935    -1.1011 C
36 C36    -0.0000    -4.3937     0.0000 C
37 C37    -0.6957    -5.1092     0.9882 C
38 C38    -0.6932    -6.5033     0.9891 C
39 C39    -0.0001    -7.2045     0.0001 C
40 C40     0.6931    -6.5034    -0.9889 C
41 C41     0.6956    -5.1093    -0.9881 C
42 H42    -4.5289    -1.9495    -0.3589 H
43 H43    -2.6957    -3.9041    -0.3938 H
44 H44     1.7010     5.0512    -0.2394 H
45 H45     3.9684     3.6046    -0.2288 H
46 H46     2.6958    -3.9041     0.3934 H
47 H47     4.5290    -1.9496     0.3584 H
48 H48    -3.9684     3.6045     0.2289 H
49 H49    -7.5769     0.2069    -1.9503 H
50 H50    -5.1122    -0.0299    -1.9679 H
51 H51    -4.9155     1.6833     1.9664 H
52 H52    -7.3799     1.9402     1.9798 H
53 H53     4.9155     1.6838    -1.9663 H
54 H54     7.3800     1.9407    -1.9795 H
55 H55     7.5768     0.2063     1.9501 H
56 H56     5.1122    -0.0304     1.9676 H
57 H57     1.2265    -4.5640    -1.7624 H
58 H58     1.2287    -7.0419    -1.7656 H
59 H59    -1.2265    -4.5638     1.7624 H
60 H60    -1.2288    -7.0417     1.7659 H
61 H61    -1.7010     5.0512     0.2398 H
62 C62    -9.1193     1.2928    -0.0062 C
63 C63     9.1194     1.2928     0.0063 C
64 F64    -9.4606     2.4549    -0.6154 F
65 F65    -9.7552     0.3058    -0.6783 F
66 F66    -9.6465     1.3372     1.2378 F
67 F67     9.4606     2.4550     0.6154 F
68 F68     9.7552     0.3059     0.6786 F
69 F69     9.6465     1.3370    -1.2377 F
70 Cu70     0.0000     0.3754    -0.0000 Cu
71 H71    -0.0001    -8.2909     0.0002 H
@<TRIPOS>BOND
1 1 7 Ar
2 1 9 Ar
3 1 30 1
4 2 12 Ar
5 2 14 Ar
6 2 36 1
7 3 17 Ar
8 3 19 Ar
9 3 24 1
10 4 5 Ar
11 4 8 Ar
12 4 22 Ar
13 5 6 2
14 5 61 1
15 6 7 Ar
16 6 48 1
17 7 8 Ar
18 8 70 1
19 9 10 Ar
20 9 13 1
21 10 11 2
22 10 42 1
23 11 12 Ar
24 11 43 1
25 12 13 1
26 13 70 1
27 14 15 Ar
28 14 18 1
29 15 16 2
30 15 46 1
31 16 17 Ar
32 16 47 1
33 17 18 1
34 18 70 1
35 19 20 Ar
36 19 23 Ar
37 20 21 2
38 20 45 1
39 21 22 Ar
40 21 44 1
41 22 23 Ar
42 23 70 1
43 24 25 Ar
44 24 29 Ar
45 25 26 Ar
46 25 53 1
47 26 27 Ar
48 26 54 1
49 27 28 Ar
50 27 63 1
51 28 29 Ar
52 28 55 1
53 29 56 1
54 30 31 Ar
55 30 35 Ar
56 31 32 Ar
57 31 51 1
58 32 33 Ar
59 32 52 1
60 33 34 Ar
61 33 62 1
62 34 35 Ar
63 34 49 1
64 35 50 1
65 36 37 Ar
66 36 41 Ar
67 37 38 Ar
68 37 59 1
69 38 39 Ar
70 38 60 1
71 39 40 Ar
72 39 71 1
73 40 41 Ar
74 40 58 1
75 41 57 1
76 62 64 1
77 62 65 1
78 62 66 1
79 63 67 1
80 63 68 1
81 63 69 1
