# Cu_F11_TD
# Created by GaussView 6.0.16
#

#
#

@<TRIPOS>MOLECULE
Molecule Name
71 81
SMALL
NO_CHARGES


@<TRIPOS>ATOM
1 C1     3.3636     1.3097     0.0237 C
2 C2     0.0000    -2.2619    -0.0001 C
3 C3    -3.3637     1.3096    -0.0238 C
4 C4     0.7087     3.6889     0.0173 C
5 C5     1.7916     4.6067    -0.1052 C
6 C6     2.9594     3.8628    -0.0767 C
7 C7     2.5939     2.4784     0.0436 C
8 N8     1.2253     2.4314     0.1715 N
9 C9     2.7744     0.0272     0.0272 C
10 C10     3.4647    -1.2235     0.1872 C
11 C11     2.5292    -2.2231     0.1841 C
12 C12     1.2432    -1.6098     0.0109 C
13 N13     1.4216    -0.2464    -0.1321 N
14 C14    -1.2432    -1.6098    -0.0110 C
15 C15    -2.5292    -2.2233    -0.1842 C
16 C16    -3.4647    -1.2237    -0.1872 C
17 C17    -2.7744     0.0270    -0.0272 C
18 N18    -1.4217    -0.2465     0.1320 N
19 C19    -2.5940     2.4783    -0.0437 C
20 C20    -2.9596     3.8626     0.0764 C
21 C21    -1.7918     4.6066     0.1048 C
22 C22    -0.7089     3.6889    -0.0175 C
23 N23    -1.2254     2.4313    -0.1715 N
24 C24    -4.8468     1.4350    -0.0286 C
25 C25    -5.5117     2.0194     1.0593 C
26 C26    -6.8972     2.1602     1.0522 C
27 C27    -7.6352     1.7127    -0.0454 C
28 C28    -6.9860     1.1287    -1.1362 C
29 C29    -5.6010     0.9933    -1.1265 C
30 C30     4.8467     1.4352     0.0286 C
31 C31     5.5117     2.0196    -1.0592 C
32 C32     6.8971     2.1604    -1.0521 C
33 C33     7.6351     1.7129     0.0456 C
34 C34     6.9859     1.1290     1.1364 C
35 C35     5.6008     0.9935     1.1266 C
36 C36     0.0001    -3.7476    -0.0001 C
37 C37     0.5653    -4.4789    -1.0502 C
38 C38     0.5738    -5.8697    -1.0590 C
39 C39     0.0003    -6.5672     0.0000 C
40 C40    -0.5734    -5.8697     1.0590 C
41 C41    -0.5650    -4.4789     1.0501 C
42 H42     4.5341    -1.3297     0.2955 H
43 H43     2.7003    -3.2817     0.3199 H
44 H44    -1.7028     5.6806     0.2015 H
45 H45    -3.9702     4.2331     0.1760 H
46 H46    -2.7002    -3.2818    -0.3201 H
47 H47    -4.5341    -1.3299    -0.2955 H
48 H48     3.9699     4.2332    -0.1764 H
49 H49     7.5599     0.7840     1.9899 H
50 H50     5.0946     0.5512     1.9785 H
51 H51     4.9387     2.3533    -1.9182 H
52 H52     7.4032     2.6058    -1.9017 H
53 H53    -4.9386     2.3532     1.9182 H
54 H54    -7.4032     2.6057     1.9018 H
55 H55    -7.5601     0.7837    -1.9897 H
56 H56    -5.0948     0.5510    -1.9784 H
57 H57     1.7024     5.6806    -0.2020 H
58 C58     9.1224     1.9137     0.0843 C
59 C59    -9.1225     1.9135    -0.0841 C
60 F60     9.4567     3.0791     0.6909 F
61 F61     9.7496     0.9299     0.7683 F
62 F62     9.6631     1.9518    -1.1540 F
63 F63    -9.4568     3.0787    -0.6910 F
64 F64    -9.7497     0.9295    -0.7678 F
65 F65    -9.6631     1.9519     1.1543 F
66 Cu66    -0.0000     1.0071    -0.0000 Cu
67 F67    -1.1177    -6.5397     2.0815 F
68 F68     1.1126    -3.8420    -2.0946 F
69 F69    -1.1125    -3.8420     2.0944 F
70 F70     0.0003    -7.9027     0.0001 F
71 F71     1.1182    -6.5397    -2.0815 F
@<TRIPOS>BOND
1 1 7 Ar
2 1 9 Ar
3 1 30 1
4 2 12 Ar
5 2 14 Ar
6 2 36 1
7 3 17 Ar
8 3 19 Ar
9 3 24 1
10 4 5 Ar
11 4 8 Ar
12 4 22 Ar
13 5 6 2
14 5 57 1
15 6 7 Ar
16 6 48 1
17 7 8 Ar
18 8 66 1
19 9 10 Ar
20 9 13 1
21 10 11 2
22 10 42 1
23 11 12 Ar
24 11 43 1
25 12 13 1
26 13 66 1
27 14 15 Ar
28 14 18 1
29 15 16 2
30 15 46 1
31 16 17 Ar
32 16 47 1
33 17 18 1
34 18 66 1
35 19 20 Ar
36 19 23 Ar
37 20 21 2
38 20 45 1
39 21 22 Ar
40 21 44 1
41 22 23 Ar
42 23 66 1
43 24 25 Ar
44 24 29 Ar
45 25 26 Ar
46 25 53 1
47 26 27 Ar
48 26 54 1
49 27 28 Ar
50 27 59 1
51 28 29 Ar
52 28 55 1
53 29 56 1
54 30 31 Ar
55 30 35 Ar
56 31 32 Ar
57 31 51 1
58 32 33 Ar
59 32 52 1
60 33 34 Ar
61 33 58 1
62 34 35 Ar
63 34 49 1
64 35 50 1
65 36 37 Ar
66 36 41 Ar
67 37 38 Ar
68 37 68 1
69 38 39 Ar
70 38 71 1
71 39 40 Ar
72 39 70 1
73 40 41 Ar
74 40 67 1
75 41 69 1
76 58 60 1
77 58 61 1
78 58 62 1
79 59 63 1
80 59 64 1
81 59 65 1
