# Cu_Ph3_COOH_TD
# Created by GaussView 6.0.16
#

#
#

@<TRIPOS>MOLECULE
Molecule Name
68 78
SMALL
NO_CHARGES


@<TRIPOS>ATOM
1 C1     3.1329    -0.0652    -0.0742 C
2 C2    -0.8829     2.7778     0.0168 C
3 C3    -3.4673    -1.4025     0.0033 C
4 C4     0.9920    -2.9296    -0.1769 C
5 C5     2.1954    -3.6226     0.0707 C
6 C6     2.6067    -1.3714    -0.0448 C
7 N7     1.2736    -1.5914    -0.3116 N
8 C8     2.2879     1.0689    -0.0976 C
9 C9     2.6954     2.4073    -0.4297 C
10 C10     1.5828     3.2041    -0.4003 C
11 C11     0.4641     2.3708    -0.0555 C
12 N12     0.9204     1.0793     0.1538 N
13 C13    -1.9704     1.8852     0.0788 C
14 C14    -3.3376     2.2164     0.3666 C
15 C15    -3.1393    -0.0249     0.0793 C
16 N16    -1.8817     0.5195    -0.1264 N
17 C17    -2.4869    -2.3931    -0.0736 C
18 C18    -1.2900    -4.3131    -0.3448 C
19 C19    -0.4055    -3.2028    -0.1844 C
20 N20    -1.1489    -2.0841     0.0285 N
21 C21    -4.8986    -1.8139     0.0345 C
22 C22    -5.4898    -2.4075    -1.0903 C
23 C23    -6.8264    -2.8067    -1.0591 C
24 C24    -7.5886    -2.6188     0.0951 C
25 C25    -7.0064    -2.0327     1.2209 C
26 C26    -5.6704    -1.6337     1.1922 C
27 C27     4.5952     0.1354    -0.1860 C
28 C28     5.2805     1.0092     0.6726 C
29 C29     6.6603     1.1693     0.5650 C
30 C30     7.3761     0.4654    -0.4067 C
31 C31     6.7023    -0.3976    -1.2735 C
32 C32     5.3233    -0.5625    -1.1639 C
33 C33    -1.1734     4.2349     0.0066 C
34 C34    -0.5548     5.0957     0.9284 C
35 C35    -0.8302     6.4620     0.9191 C
36 C36    -2.3389     6.1469    -0.9408 C
37 C37    -2.0700     4.7793    -0.9281 C
38 H38     3.7026     2.6973    -0.6911 H
39 H39     1.5216     4.2564    -0.6369 H
40 H40     2.3131    -4.6874     0.2176 H
41 H41    -0.9928    -5.3427    -0.4945 H
42 H42    -3.7016     3.2104     0.5815 H
43 C43    -4.0537     1.0475     0.3585 C
44 H44    -5.1123     0.9265     0.5363 H
45 C45     3.2052    -2.6657     0.1863 C
46 C46    -2.5789    -3.8169    -0.2626 C
47 H47    -3.5002    -4.3715    -0.3720 H
48 C48     4.5576    -3.0350     0.6391 C
49 O49     5.1332    -4.0585     0.3165 O
50 O50     5.0859    -2.1607     1.5252 O
51 H51     5.9883    -2.4810     1.7179 H
52 H52     4.7290     1.5387     1.4429 H
53 H53     7.1791     1.8386     1.2457 H
54 H54     8.4520     0.5914    -0.4893 H
55 H55     7.2498    -0.9417    -2.0378 H
56 H56     4.7998    -1.2287    -1.8426 H
57 H57     0.1321     4.6829     1.6605 H
58 H58    -2.5419     4.1240    -1.6535 H
59 H59    -3.0271     6.5529    -1.6768 H
60 H60    -0.3513     7.1123     1.6457 H
61 H61    -4.9002    -2.5456    -1.9916 H
62 H62    -7.2726    -3.2608    -1.9395 H
63 H63    -8.6295    -2.9288     0.1182 H
64 H64    -7.5904    -1.8902     2.1259 H
65 H65    -5.2151    -1.1897     2.0724 H
66 Cu66    -0.2224    -0.4325    -0.0623 Cu
67 C67    -1.7217     6.9921    -0.0162 C
68 H68    -1.9340     8.0575    -0.0246 H
@<TRIPOS>BOND
1 1 6 Ar
2 1 8 Ar
3 1 27 1
4 2 11 Ar
5 2 13 Ar
6 2 33 1
7 3 15 Ar
8 3 17 Ar
9 3 21 1
10 4 5 Ar
11 4 7 Ar
12 4 19 Ar
13 5 40 1
14 5 45 Ar
15 6 7 Ar
16 6 45 Ar
17 7 66 1
18 8 9 Ar
19 8 12 1
20 9 10 2
21 9 38 1
22 10 11 Ar
23 10 39 1
24 11 12 1
25 12 66 1
26 13 14 Ar
27 13 16 1
28 14 42 1
29 14 43 2
30 15 16 1
31 15 43 Ar
32 16 66 1
33 17 20 Ar
34 17 46 Ar
35 18 19 Ar
36 18 41 1
37 18 46 2
38 19 20 Ar
39 20 66 1
40 21 22 Ar
41 21 26 Ar
42 22 23 Ar
43 22 61 1
44 23 24 Ar
45 23 62 1
46 24 25 Ar
47 24 63 1
48 25 26 Ar
49 25 64 1
50 26 65 1
51 27 28 Ar
52 27 32 Ar
53 28 29 Ar
54 28 52 1
55 29 30 Ar
56 29 53 1
57 30 31 Ar
58 30 54 1
59 31 32 Ar
60 31 55 1
61 32 56 1
62 33 34 Ar
63 33 37 Ar
64 34 35 Ar
65 34 57 1
66 35 60 1
67 35 67 Ar
68 36 37 Ar
69 36 59 1
70 36 67 Ar
71 37 58 1
72 43 44 1
73 45 48 1
74 46 47 1
75 48 49 2
76 48 50 1
77 50 51 1
78 67 68 1
