# Et_Me_Rh_TD
# Created by GaussView 6.0.16
#

#
#

@<TRIPOS>MOLECULE
Molecule Name
75 81
SMALL
NO_CHARGES


@<TRIPOS>ATOM
1 C1     0.4924    -3.3371    -0.3071 C
2 C2     3.5038     0.3619     0.8598 C
3 C3    -0.1686     3.3152    -0.4503 C
4 C4    -2.0874    -0.9162    -1.3526 C
5 C5    -2.8985    -1.9692    -0.9786 C
6 C6    -2.0896    -3.0855    -0.5672 C
7 C7    -0.7515    -2.7201    -0.6729 C
8 N8    -0.7280    -1.4112    -1.2505 N
9 C9     1.6559    -2.6953     0.0803 C
10 C10     3.0017    -3.1924     0.1724 C
11 C11     3.8544    -2.1503     0.5185 C
12 C12     3.0900    -0.9432     0.6664 C
13 N13     1.7086    -1.3137     0.5175 N
14 C14     2.7519     1.5683     0.6985 C
15 C15     3.1834     2.9367     0.9537 C
16 C16     2.1457     3.7670     0.5781 C
17 C17     1.0741     2.9181     0.0721 C
18 N18     1.5048     1.6127     0.1857 N
19 C19    -1.1854     2.4924    -0.9838 C
20 C20    -2.5621     2.7668    -1.3667 C
21 C21    -3.1536     1.5425    -1.6501 C
22 C22    -2.1597     0.5209    -1.4632 C
23 N23    -1.0095     1.1496    -1.1032 N
24 H24    -0.2390    -1.4126    -2.1799 H
25 H25     1.2230    -1.2649     1.4552 H
26 H26    -3.9765    -1.9285    -0.8861 H
27 C27    -4.2672     0.0575     1.7156 C
28 C28    -3.9156    -1.2056     2.5055 C
29 H29    -3.5195     0.2081     0.9302 H
30 H30    -4.1949     0.9330     2.3769 H
31 H31    -4.5547    -1.3276     3.3877 H
32 H32    -4.0341    -2.1030     1.8846 H
33 H33    -2.8759    -1.1788     2.8492 H
34 H34    -4.1790     1.3837    -1.9582 H
35 C35    -5.6572     0.0314     1.0656 C
36 C36    -6.8164    -0.0569     2.0614 C
37 H37    -5.7753     0.9353     0.4529 H
38 H38    -5.7133    -0.8198     0.3701 H
39 H39    -6.7761     0.7655     2.7872 H
40 H40    -7.7849    -0.0018     1.5500 H
41 H41    -6.7963    -0.9962     2.6259 H
42 C42    -2.6178    -4.3605     0.0108 C
43 H43    -3.3141    -4.8520    -0.6793 H
44 H44    -1.8088    -5.0621     0.2348 H
45 H45    -3.1638    -4.1758     0.9448 H
46 C46    -3.2020     4.1188    -1.4212 C
47 H47    -3.1501     4.6299    -0.4510 H
48 H48    -2.7124     4.7724    -2.1549 H
49 H49    -4.2577     4.0406    -1.6992 H
50 C50     3.3700    -4.6025    -0.1648 C
51 H51     2.7976    -5.3152     0.4424 H
52 H52     3.1490    -4.8250    -1.2165 H
53 H53     4.4313    -4.8001     0.0033 H
54 C54     5.3454    -2.1917     0.6369 C
55 H55     5.8202    -1.6034    -0.1588 H
56 H56     5.6759    -1.7671     1.5928 H
57 H57     5.7326    -3.2112     0.5729 H
58 C58     4.5144     3.3045     1.5317 C
59 H59     4.6410     2.9036     2.5458 H
60 H60     5.3403     2.9097     0.9254 H
61 H61     4.6422     4.3892     1.5887 H
62 C62     2.0837     5.2618     0.6302 C
63 H63     1.9761     5.6975    -0.3717 H
64 H64     1.2301     5.6101     1.2257 H
65 H65     2.9878     5.6858     1.0762 H
66 H66    -0.3782     4.3809    -0.4140 H
67 H67     0.5343    -4.4228    -0.3482 H
68 Rh68     0.4512     0.0417    -0.3973 Rh
69 C69    -0.5151     0.0090     1.4572 C
70 O70    -0.1004    -0.6787     2.4003 O
71 H71    -1.4020     0.6528     1.6880 H
72 C72     1.4546    -0.0063    -2.2143 C
73 O73     1.1066    -0.7403    -3.1466 O
74 H74     2.3447     0.6502    -2.4181 H
75 H75     4.5556     0.4944     1.0971 H
@<TRIPOS>BOND
1 1 7 Ar
2 1 9 2
3 1 67 1
4 2 12 2
5 2 14 Ar
6 2 75 1
7 3 17 Ar
8 3 19 Ar
9 3 66 1
10 4 5 2
11 4 8 1
12 4 22 Ar
13 5 6 Ar
14 5 26 1
15 6 7 Ar
16 6 42 1
17 7 8 1
18 8 24 1
19 8 68 1
20 9 10 Ar
21 9 13 1
22 10 11 Ar
23 10 50 1
24 11 12 Ar
25 11 54 1
26 12 13 1
27 13 25 1
28 13 68 1
29 14 15 1
30 14 18 Ar
31 15 16 2
32 15 58 1
33 16 17 1
34 16 62 1
35 17 18 Ar
36 18 68 1
37 19 20 1
38 19 23 Ar
39 20 21 Ar
40 20 46 1
41 21 22 Ar
42 21 34 1
43 22 23 Ar
44 23 68 1
45 27 28 1
46 27 29 1
47 27 30 1
48 27 35 1
49 28 31 1
50 28 32 1
51 28 33 1
52 35 36 1
53 35 37 1
54 35 38 1
55 36 39 1
56 36 40 1
57 36 41 1
58 42 43 1
59 42 44 1
60 42 45 1
61 46 47 1
62 46 48 1
63 46 49 1
64 50 51 1
65 50 52 1
66 50 53 1
67 54 55 1
68 54 56 1
69 54 57 1
70 58 59 1
71 58 60 1
72 58 61 1
73 62 63 1
74 62 64 1
75 62 65 1
76 68 69 1
77 68 72 1
78 69 70 2
79 69 71 1
80 72 73 2
81 72 74 1
