# 4MePh3_2NO2_TD
# Created by GaussView 6.0.16
#

#
#

@<TRIPOS>MOLECULE
Molecule Name
80 87
SMALL
NO_CHARGES


@<TRIPOS>ATOM
1 C1     3.4808    -0.6153    -0.0468 C
2 C2     0.0232     2.9075     0.0894 C
3 C3    -3.4263    -0.5838    -0.0960 C
4 C4     0.7086    -2.9589    -0.2555 C
5 C5     1.6471    -3.8592     0.2380 C
6 C6     2.8486    -3.1427     0.4113 C
7 C7     2.6719    -1.7924     0.0027 C
8 N8     1.3586    -1.7476    -0.4107 N
9 C9     2.8836     0.6531    -0.0818 C
10 C10     3.4905     1.9101    -0.4262 C
11 C11     2.5340     2.8898    -0.3845 C
12 C12     1.2771     2.2922    -0.0223 C
13 N13     1.5362     0.9438     0.1334 N
14 C14    -1.2243     2.2185     0.1677 C
15 C15    -2.4991     2.8715     0.4483 C
16 C16    -3.4570     1.9081     0.3994 C
17 C17    -2.7841     0.6587     0.0751 C
18 N18    -1.4181     0.8878    -0.0270 N
19 C19    -2.6793    -1.7747    -0.3449 C
20 C20    -2.9466    -3.1718    -0.4998 C
21 C21    -1.7381    -3.8850    -0.4827 C
22 C22    -0.7159    -2.9354    -0.3612 C
23 N23    -1.3152    -1.7072    -0.3004 N
24 C24     0.0076     4.3956     0.0647 C
25 C25     0.7807     5.1431     0.9667 C
26 C26     0.0049     7.2334    -0.0069 C
27 H27     1.4705    -4.8773     0.5494 H
28 H28     1.0090    -1.0080    -1.0080 H
29 H29     4.5225     2.0215    -0.7231 H
30 H30     2.6608     3.9316    -0.6378 H
31 H31     0.8748     0.3353     0.5953 H
32 H32    -2.6301     3.9186     0.6790 H
33 H33    -4.5162     2.0219     0.5774 H
34 H34    -1.6292    -4.9528    -0.5948 H
35 H35    -0.8966    -0.7753    -0.1473 H
36 C36    -0.7680     5.0955    -0.8745 C
37 H37     1.3746     4.6252     1.7139 H
38 H38    -1.3639     4.5388    -1.5912 H
39 C39    -4.8972    -0.6614     0.0811 C
40 C40    -5.7680     0.0673    -0.7384 C
41 C41    -5.4460    -1.4594     1.0961 C
42 C42    -7.1467    -0.0088    -0.5527 C
43 H43    -5.3605     0.6800    -1.5367 H
44 C44    -6.8223    -1.5262     1.2798 C
45 H45    -4.7862    -2.0227     1.7501 H
46 C46    -7.6988    -0.8078     0.4547 C
47 H47    -7.8054     0.5563    -1.2075 H
48 H48    -7.2257    -2.1477     2.0757 H
49 C49     4.9487    -0.7297    -0.1526 C
50 C50     5.5239    -1.6528    -1.0427 C
51 C51     5.8060     0.0703     0.6167 C
52 C52     6.9033    -1.7643    -1.1591 C
53 H53     4.8789    -2.2766    -1.6548 H
54 C54     7.1882    -0.0455     0.4936 C
55 H55     5.3843     0.7637     1.3376 H
56 C56     7.7630    -0.9642    -0.3920 C
57 H57     7.3243    -2.4828    -1.8583 H
58 H58     7.8330     0.5774     1.1084 H
59 C59    -0.7693     6.4868    -0.9056 C
60 H60    -1.3757     7.0039    -1.6455 H
61 C61     0.7773     6.5357     0.9294 C
62 H62     1.3776     7.0904     1.6464 H
63 C63     0.0234     8.7398    -0.0660 C
64 H64     0.3020     9.1756     0.8990 H
65 H65     0.7495     9.0987    -0.8079 H
66 H66    -0.9546     9.1418    -0.3520 H
67 C67     9.2585    -1.1126    -0.5065 C
68 H68     9.5968    -2.0582    -0.0631 H
69 H69     9.5823    -1.1161    -1.5540 H
70 H70     9.7826    -0.3005     0.0071 H
71 C71    -9.1914    -0.9195     0.6340 C
72 H72    -9.7197    -0.1085     0.1225 H
73 H73    -9.5670    -1.8669     0.2252 H
74 H74    -9.4725    -0.8934     1.6931 H
75 N75     3.9768    -3.7119     1.0876 N
76 O76     4.0663    -4.9466     1.0881 O
77 O77     4.7725    -2.9571     1.6514 O
78 N78    -4.2024    -3.8198    -0.7528 N
79 O79    -5.0838    -3.1863    -1.3359 O
80 O80    -4.3057    -5.0028    -0.4048 O
@<TRIPOS>BOND
1 1 7 Ar
2 1 9 Ar
3 1 49 1
4 2 12 Ar
5 2 14 Ar
6 2 24 1
7 3 17 Ar
8 3 19 Ar
9 3 39 1
10 4 5 Ar
11 4 8 1
12 4 22 Ar
13 5 6 Ar
14 5 27 1
15 6 7 Ar
16 6 75 1
17 7 8 Ar
18 8 28 1
19 9 10 Ar
20 9 13 1
21 10 11 2
22 10 29 1
23 11 12 Ar
24 11 30 1
25 12 13 1
26 13 31 1
27 14 15 1
28 14 18 Ar
29 15 16 2
30 15 32 1
31 16 17 1
32 16 33 1
33 17 18 1
34 19 20 Ar
35 19 23 Ar
36 20 21 Ar
37 20 78 1
38 21 22 Ar
39 21 34 1
40 22 23 Ar
41 23 35 1
42 24 25 Ar
43 24 36 Ar
44 25 37 1
45 25 61 Ar
46 26 59 Ar
47 26 61 Ar
48 26 63 1
49 36 38 1
50 36 59 Ar
51 39 40 Ar
52 39 41 Ar
53 40 42 Ar
54 40 43 1
55 41 44 Ar
56 41 45 1
57 42 46 Ar
58 42 47 1
59 44 46 Ar
60 44 48 1
61 46 71 1
62 49 50 Ar
63 49 51 Ar
64 50 52 Ar
65 50 53 1
66 51 54 Ar
67 51 55 1
68 52 56 Ar
69 52 57 1
70 54 56 Ar
71 54 58 1
72 56 67 1
73 59 60 1
74 61 62 1
75 63 64 1
76 63 65 1
77 63 66 1
78 67 68 1
79 67 69 1
80 67 70 1
81 71 72 1
82 71 73 1
83 71 74 1
84 75 76 Ar
85 75 77 Ar
86 78 79 Ar
87 78 80 Ar
