# 149h_2N
# Created by GaussView 6.0.16
#

#
#

@<TRIPOS>MOLECULE
Molecule Name
118 128
SMALL
NO_CHARGES


@<TRIPOS>ATOM
1 C1     3.4746    -1.8707    -0.1823 C
2 C2     0.0212     1.6412    -0.0325 C
3 C3    -3.3775    -1.8922    -0.0909 C
4 C4     0.7445    -4.2350    -0.3154 C
5 C5     1.7638    -5.1241     0.0803 C
6 C6     2.9647    -4.4092     0.1433 C
7 C7     2.7025    -3.0597    -0.2013 C
8 N8     1.3532    -3.0054    -0.4940 N
9 C9     2.8918    -0.5939    -0.1827 C
10 C10     3.5302     0.6846    -0.3010 C
11 C11     2.5697     1.6653    -0.2625 C
12 C12     1.2866     1.0435    -0.1119 C
13 N13     1.5272    -0.3162    -0.0893 N
14 C14    -1.2265     0.9612     0.0045 C
15 C15    -2.5210     1.6254     0.0796 C
16 C16    -3.4689     0.6495     0.0572 C
17 C17    -2.7675    -0.6193    -0.0214 C
18 N18    -1.4025    -0.3890    -0.0465 N
19 C19    -2.6249    -3.0815    -0.2392 C
20 C20    -2.9278    -4.4747    -0.1987 C
21 C21    -1.7261    -5.1765    -0.2507 C
22 C22    -0.6724    -4.2264    -0.3320 C
23 N23    -1.2676    -2.9959    -0.3556 N
24 C24    -4.8509    -2.0129     0.0006 C
25 C25    -5.6044    -2.6288    -1.0071 C
26 C26    -6.9783    -2.7774    -0.9194 C
27 C27    -6.9698    -1.6409     1.1638 C
28 C28    -5.5842    -1.5449     1.0940 C
29 C29     4.9559    -1.9791    -0.1485 C
30 C30     5.6420    -2.5451     0.9309 C
31 C31     7.0236    -2.6430     0.9614 C
32 C32     7.1428    -1.6527    -1.1922 C
33 C33     5.7572    -1.5363    -1.2020 C
34 C34     0.0020     3.1295    -0.0043 C
35 C35     0.5535     3.8600     1.0495 C
36 C36     0.5592     5.2504     1.0765 C
37 C37    -0.6170     5.2746    -0.9855 C
38 C38    -0.5643     3.8911    -1.0323 C
39 H39     1.6161    -6.1567     0.3660 H
40 H40     3.9149    -4.7925     0.4844 H
41 H41     0.9826    -2.3096    -1.1287 H
42 H42     4.5930     0.8292    -0.4270 H
43 H43     2.7291     2.7295    -0.3579 H
44 H44     0.8303    -0.9455     0.2846 H
45 H45    -2.6830     2.6919     0.1458 H
46 H46    -4.5418     0.7792     0.0770 H
47 H47    -3.9190    -4.8990    -0.1219 H
48 H48    -1.6010    -6.2506    -0.2412 H
49 H49    -0.8475    -2.0638    -0.2548 H
50 C50    -7.7263    -2.2757     0.1642 C
51 C51    -0.0465     6.0178     0.0670 C
52 F52    -7.6158    -3.4236    -1.9178 F
53 F53    -4.9897    -3.1245    -2.0963 F
54 F54    -4.9548    -0.9461     2.1204 F
55 F55    -7.5777    -1.0948     2.2393 F
56 F56     1.1427     3.2168     2.0738 F
57 F57     1.1767     5.8528     2.1164 F
58 F58    -1.1203     3.2766    -2.0914 F
59 F59    -1.2370     5.9260    -1.9918 F
60 F60     5.1866    -0.9986    -2.2962 F
61 F61     7.8100    -1.2409    -2.2917 F
62 F62     4.9570    -2.9867     2.0025 F
63 F63     7.6030    -3.1561     2.0661 F
64 C64     7.8368    -2.2032    -0.1015 C
65 N65     9.2212    -2.2869     0.0058 N
66 C66     9.8337    -3.6076     0.1946 C
67 C67    10.0842    -1.3735    -0.7436 C
68 C68    11.1794    -3.4541     0.8927 C
69 H69     9.9798    -4.0980    -0.7815 H
70 C70    11.4207    -1.2492    -0.0168 C
71 H71     9.6056    -0.3937    -0.7970 H
72 H72    11.6618    -4.4354     0.9652 H
73 H73    11.2547    -0.7593     0.9629 H
74 N74    -9.1037    -2.4672     0.2000 N
75 C75    -9.8261    -2.4866     1.4725 C
76 C76    -9.9140    -1.9125    -0.8916 C
77 C77   -11.1146    -3.2863     1.2959 C
78 H78   -10.0735    -1.4702     1.8119 H
79 C79   -11.2063    -2.7080    -1.0277 C
80 H80    -9.3523    -1.9606    -1.8238 H
81 H81   -11.6811    -3.2600     2.2337 H
82 H82   -10.9589    -3.7349    -1.3609 H
83 N83    -0.1528     7.4040     0.0740 N
84 C84    -0.1159     8.1541     1.3289 C
85 C85     0.4050     8.1660    -1.0489 C
86 C86    -0.8732     9.4662     1.1408 C
87 H87     0.9167     8.3707     1.6395 H
88 C88    -0.3482     9.4822    -1.1984 C
89 H89     0.3162     7.5841    -1.9655 H
90 H90    -0.8035    10.0539     2.0632 H
91 H91    -1.3906     9.2627    -1.5015 H
92 H92    -0.5958     7.5656     2.1126 H
93 H93    -1.9432     9.2417     0.9622 H
94 H94     0.1159    10.0758    -1.9942 H
95 H95     1.4725     8.3731    -0.8694 H
96 H96    -9.2030    -2.9622     2.2321 H
97 H97   -10.8578    -4.3432     1.0851 H
98 H98   -10.1530    -0.8572    -0.6828 H
99 H99   -11.8345    -2.2462    -1.7978 H
100 H100    11.0066    -3.0838     1.9222 H
101 H101     9.1756    -4.2320     0.7982 H
102 H102    10.2593    -1.7311    -1.7687 H
103 H103    12.0862    -0.6062    -0.6038 H
104 N104    12.0496    -2.5583     0.1355 N
105 N105   -11.9381    -2.7116     0.2361 N
106 N106    -0.2971    10.2437     0.0469 N
107 C107    13.3665    -2.4528     0.7420 C
108 H108    14.0070    -1.8126     0.1254 H
109 H109    13.3416    -2.0295     1.7650 H
110 H110    13.8281    -3.4448     0.7976 H
111 C111    -0.9436    11.5384    -0.0884 C
112 H112    -2.0211    11.4642    -0.3333 H
113 H113    -0.8469    12.0983     0.8483 H
114 H114    -0.4549    12.1141    -0.8823 H
115 C115   -13.2145    -3.3960     0.1168 C
116 H116   -13.1126    -4.4656    -0.1516 H
117 H117   -13.7556    -3.3354     1.0675 H
118 H118   -13.8231    -2.9100    -0.6539 H
@<TRIPOS>BOND
1 1 7 Ar
2 1 9 Ar
3 1 29 1
4 2 12 Ar
5 2 14 Ar
6 2 34 1
7 3 17 Ar
8 3 19 Ar
9 3 24 1
10 4 5 Ar
11 4 8 1
12 4 22 Ar
13 5 6 Ar
14 5 39 1
15 6 7 Ar
16 6 40 1
17 7 8 Ar
18 8 41 1
19 9 10 Ar
20 9 13 1
21 10 11 2
22 10 42 1
23 11 12 Ar
24 11 43 1
25 12 13 Ar
26 13 44 1
27 14 15 1
28 14 18 Ar
29 15 16 2
30 15 45 1
31 16 17 1
32 16 46 1
33 17 18 1
34 19 20 Ar
35 19 23 Ar
36 20 21 Ar
37 20 47 1
38 21 22 Ar
39 21 48 1
40 22 23 Ar
41 23 49 1
42 24 25 Ar
43 24 28 Ar
44 25 26 2
45 25 53 1
46 26 50 Ar
47 26 52 1
48 27 28 Ar
49 27 50 Ar
50 27 55 1
51 28 54 1
52 29 30 Ar
53 29 33 Ar
54 30 31 2
55 30 62 1
56 31 63 1
57 31 64 Ar
58 32 33 Ar
59 32 61 1
60 32 64 Ar
61 33 60 1
62 34 35 Ar
63 34 38 Ar
64 35 36 Ar
65 35 56 1
66 36 51 Ar
67 36 57 1
68 37 38 2
69 37 51 Ar
70 37 59 1
71 38 58 1
72 50 74 1
73 51 83 1
74 64 65 1
75 65 66 1
76 65 67 1
77 66 68 1
78 66 69 1
79 66 101 1
80 67 70 1
81 67 71 1
82 67 102 1
83 68 72 1
84 68 100 1
85 68 104 1
86 70 73 1
87 70 103 1
88 70 104 1
89 74 75 1
90 74 76 1
91 75 77 1
92 75 78 1
93 75 96 1
94 76 79 1
95 76 80 1
96 76 98 1
97 77 81 1
98 77 97 1
99 77 105 1
100 79 82 1
101 79 99 1
102 79 105 1
103 83 84 1
104 83 85 1
105 84 86 1
106 84 87 1
107 84 92 1
108 85 88 1
109 85 89 1
110 85 95 1
111 86 90 1
112 86 93 1
113 86 106 1
114 88 91 1
115 88 94 1
116 88 106 1
117 104 107 1
118 105 115 1
119 106 111 1
120 107 108 1
121 107 109 1
122 107 110 1
123 111 112 1
124 111 113 1
125 111 114 1
126 115 116 1
127 115 117 1
128 115 118 1
