# F0_6Ph3
# Created by GaussView 6.0.16
#

#
#

@<TRIPOS>MOLECULE
Molecule Name
119 134
SMALL
NO_CHARGES


@<TRIPOS>ATOM
1 C1     3.4159    -0.2213    -1.0151 C
2 C2    -0.0103     3.2878    -0.6799 C
3 C3    -3.3038    -0.3350    -1.0879 C
4 C4     0.8112    -2.5763    -1.6142 C
5 C5     1.9121    -3.4627    -1.8000 C
6 C6     3.0657    -2.7304    -1.5694 C
7 C7     2.6684    -1.3884    -1.2383 C
8 N8     1.2984    -1.3444    -1.2731 N
9 C9     2.8027     1.0446    -0.8876 C
10 C10     3.4794     2.3000    -0.7067 C
11 C11     2.5304     3.2864    -0.6363 C
12 C12     1.2435     2.6560    -0.7567 C
13 N13     1.4294     1.2889    -0.9000 N
14 C14    -1.2380     2.6096    -0.7515 C
15 C15    -2.5497     3.2034    -0.7475 C
16 C16    -3.4595     2.1850    -0.8392 C
17 C17    -2.7316     0.9449    -0.9106 C
18 N18    -1.3739     1.2364    -0.8653 N
19 C19    -2.5165    -1.4693    -1.3403 C
20 C20    -2.8554    -2.8275    -1.6702 C
21 C21    -1.6697    -3.5149    -1.8849 C
22 C22    -0.6052    -2.5941    -1.6612 C
23 N23    -1.1456    -1.3778    -1.3401 N
24 C24    -4.7804    -0.4774    -1.0429 C
25 C25    -5.4925    -1.0254    -2.1213 C
26 C26    -6.8762    -1.1643    -2.0670 C
27 C27    -7.6028    -0.7607    -0.9346 C
28 C28    -6.8866    -0.2142     0.1433 C
29 C29    -5.5033    -0.0758     0.0917 C
30 C30    -0.0378     4.7687    -0.5081 C
31 C31    -0.6060     5.3445     0.6386 C
32 C32    -0.6304     6.7293     0.8037 C
33 C33    -0.0849     7.5622    -0.1752 C
34 C34     0.4837     7.0008    -1.3203 C
35 C35     0.5067     5.6159    -1.4854 C
36 C36     4.8944    -0.3401    -0.9572 C
37 C37     5.7302     0.3755    -1.8293 C
38 C38     7.1128     0.2284    -1.7767 C
39 C39     7.7167    -0.6426    -0.8547 C
40 C40     6.8786    -1.3608     0.0141 C
41 C41     5.4961    -1.2134    -0.0368 C
42 H42    -3.8585    -3.2216    -1.7511 H
43 H43    -1.5601    -4.5549    -2.1635 H
44 H44     1.8467    -4.5042    -2.0865 H
45 H45     4.0861    -3.0782    -1.6510 H
46 H46    -4.5352     2.2719    -0.8917 H
47 H47    -2.7507     4.2641    -0.7093 H
48 H48     2.6950     4.3455    -0.5027 H
49 H49     4.5505     2.4220    -0.6384 H
50 Co50     0.0483    -0.0151    -0.8276 Co
51 P51    -0.0543    -0.5900     1.3131 P
52 C52     0.2864    -2.3747     1.4973 C
53 C53     1.5841    -2.8026     1.8197 C
54 C54    -0.6933    -3.3315     1.1978 C
55 C55     1.8829    -4.1616     1.8743 C
56 H56     2.3610    -2.0749     2.0240 H
57 C57    -0.3944    -4.6920     1.2743 C
58 H58    -1.6847    -3.0234     0.8883 H
59 C59     0.8914    -5.1104     1.6139 C
60 H60     2.8925    -4.4783     2.1193 H
61 H61    -1.1670    -5.4200     1.0452 H
62 H62     1.1255    -6.1702     1.6629 H
63 C63    -1.6618    -0.2506     2.1426 C
64 C64    -2.3767    -1.2087     2.8734 C
65 C65    -2.1089     1.0797     2.1476 C
66 C66    -3.5310    -0.8467     3.5706 C
67 H67    -2.0352    -2.2346     2.9188 H
68 C68    -3.2562     1.4392     2.8498 C
69 H69    -1.5591     1.8391     1.6054 H
70 C70    -3.9761     0.4749     3.5593 C
71 H71    -4.0765    -1.6031     4.1274 H
72 H72    -3.5902     2.4723     2.8310 H
73 H73    -4.8744     0.7534     4.1029 H
74 C74     1.0763     0.1753     2.5471 C
75 C75     1.0971    -0.3752     3.8424 C
76 C76     1.8403     1.3118     2.2787 C
77 C77     1.8924     0.1911     4.8335 C
78 H78     0.4929    -1.2465     4.0736 H
79 C79     2.6355     1.8802     3.2771 C
80 H80     1.8161     1.7630     1.3023 H
81 C81     2.6686     1.3203     4.5517 C
82 H82     1.9044    -0.2466     5.8277 H
83 H83     3.2270     2.7608     3.0441 H
84 H84     3.2896     1.7605     5.3268 H
85 H85     5.2870     1.0442    -2.5604 H
86 H86     7.3146    -2.0596     0.7219 H
87 H87     4.8661    -1.7810     0.6412 H
88 H88    -4.9543    -1.3334    -3.0120 H
89 H89    -7.4222     0.1258     1.0250 H
90 H90    -4.9692     0.3451     0.9367 H
91 H91    -7.4002    -1.6053    -2.9098 H
92 H92     7.7351     0.8081    -2.4517 H
93 H93     0.9419     5.1800    -2.3796 H
94 H94     0.9053     7.6415    -2.0900 H
95 H95    -1.0708     7.1574     1.7002 H
96 H96    -1.0225     4.6974     1.4050 H
97 H97    -0.1032     8.6409    -0.0470 H
98 C98    -9.0779    -0.8953    -0.8843 C
99 C99    -9.8581    -0.6954    -2.0358 C
100 C100    -9.7354    -1.2170     0.3153 C
101 C101   -11.2459    -0.8158    -1.9906 C
102 H102    -9.3730    -0.4188    -2.9671 H
103 C103   -11.1235    -1.3357     0.3613 C
104 H104    -9.1504    -1.3996     1.2119 H
105 C105   -11.8857    -1.1354    -0.7914 C
106 H106   -11.8290    -0.6488    -2.8922 H
107 H107   -11.6103    -1.5923     1.2984 H
108 H108   -12.9676    -1.2275    -0.7556 H
109 C109     9.1889    -0.8055    -0.8060 C
110 C110     9.9574    -0.7665    -1.9819 C
111 C111     9.8530    -1.0101     0.4152 C
112 C112    11.3414    -0.9252    -1.9381 C
113 H113     9.4617    -0.6365    -2.9393 H
114 C114    11.2370    -1.1704     0.4591 C
115 H115     9.2819    -1.0176     1.3390 H
116 C116    11.9879    -1.1292    -0.7174 C
117 H117    11.9144    -0.8994    -2.8610 H
118 H118    11.7310    -1.3194     1.4154 H
119 H119    13.0665    -1.2541    -0.6833 H
@<TRIPOS>BOND
1 1 7 Ar
2 1 9 Ar
3 1 36 1
4 2 12 Ar
5 2 14 Ar
6 2 30 1
7 3 17 Ar
8 3 19 Ar
9 3 24 1
10 4 5 Ar
11 4 8 Ar
12 4 22 Ar
13 5 6 2
14 5 44 1
15 6 7 Ar
16 6 45 1
17 7 8 Ar
18 8 50 1
19 9 10 Ar
20 9 13 1
21 10 11 2
22 10 49 1
23 11 12 Ar
24 11 48 1
25 12 13 1
26 13 50 1
27 14 15 Ar
28 14 18 1
29 15 16 2
30 15 47 1
31 16 17 Ar
32 16 46 1
33 17 18 1
34 18 50 1
35 19 20 Ar
36 19 23 Ar
37 20 21 Ar
38 20 42 1
39 21 22 Ar
40 21 43 1
41 22 23 Ar
42 23 50 1
43 24 25 Ar
44 24 29 Ar
45 25 26 Ar
46 25 88 1
47 26 27 Ar
48 26 91 1
49 27 28 Ar
50 27 98 1
51 28 29 Ar
52 28 89 1
53 29 90 1
54 30 31 Ar
55 30 35 Ar
56 31 32 Ar
57 31 96 1
58 32 33 Ar
59 32 95 1
60 33 34 Ar
61 33 97 1
62 34 35 Ar
63 34 94 1
64 35 93 1
65 36 37 Ar
66 36 41 Ar
67 37 38 Ar
68 37 85 1
69 38 39 Ar
70 38 92 1
71 39 40 Ar
72 39 109 1
73 40 41 Ar
74 40 86 1
75 41 87 1
76 50 51 1
77 51 52 1
78 51 63 1
79 51 74 1
80 52 53 Ar
81 52 54 Ar
82 53 55 Ar
83 53 56 1
84 54 57 Ar
85 54 58 1
86 55 59 Ar
87 55 60 1
88 57 59 Ar
89 57 61 1
90 59 62 1
91 63 64 Ar
92 63 65 Ar
93 64 66 Ar
94 64 67 1
95 65 68 Ar
96 65 69 1
97 66 70 Ar
98 66 71 1
99 68 70 Ar
100 68 72 1
101 70 73 1
102 74 75 Ar
103 74 76 Ar
104 75 77 Ar
105 75 78 1
106 76 79 Ar
107 76 80 1
108 77 81 Ar
109 77 82 1
110 79 81 Ar
111 79 83 1
112 81 84 1
113 98 99 Ar
114 98 100 Ar
115 99 101 Ar
116 99 102 1
117 100 103 Ar
118 100 104 1
119 101 105 Ar
120 101 106 1
121 103 105 Ar
122 103 107 1
123 105 108 1
124 109 110 Ar
125 109 111 Ar
126 110 112 Ar
127 110 113 1
128 111 114 Ar
129 111 115 1
130 112 116 Ar
131 112 117 1
132 114 116 Ar
133 114 118 1
134 116 119 1
