# PPh3_3Ph_3Ph_2
# Created by GaussView 6.0.16
#

#
#

@<TRIPOS>MOLECULE
Molecule Name
129 145
SMALL
NO_CHARGES


@<TRIPOS>ATOM
1 C1     2.6035    -1.9399    -0.8425 C
2 C2     0.7628     2.3576     0.6575 C
3 C3    -3.6470     0.4786    -0.4289 C
4 C4    -0.6764    -2.8700    -1.8930 C
5 C5     0.0183    -3.9985    -2.4191 C
6 C6     1.3547    -3.8514    -2.0745 C
7 C7     1.4815    -2.6210    -1.3408 C
8 N8     0.2293    -2.0668    -1.2537 N
9 C9     2.5115    -0.6328    -0.3164 C
10 C10     3.6056     0.1613     0.1808 C
11 C11     3.1014     1.3653     0.5909 C
12 C12     1.6793     1.3359     0.3663 C
13 N13     1.3408     0.1055    -0.1763 N
14 C14    -0.6243     2.2548     0.4487 C
15 C15    -1.6085     3.2773     0.6794 C
16 C16    -2.8373     2.7344     0.4024 C
17 C17    -2.6349     1.3756    -0.0201 C
18 N18    -1.2681     1.1128     0.0027 N
19 C19    -3.3467    -0.7569    -1.0191 C
20 C20    -4.1727    -1.7762    -1.6074 C
21 C21    -3.3322    -2.7612    -2.1004 C
22 C22    -1.9968    -2.3625    -1.7979 C
23 N23    -2.0396    -1.1585    -1.1497 N
24 C24    -5.0677     0.8636    -0.2299 C
25 C25    -5.9590     0.9126    -1.3090 C
26 C26    -7.3103     1.2447    -1.1305 C
27 C27    -7.7636     1.5297     0.1678 C
28 C28    -6.8859     1.4849     1.2498 C
29 C29    -5.5453     1.1554     1.0581 C
30 C30     1.2894     3.6356     1.2170 C
31 C31     0.9099     4.0703     2.4958 C
32 C32     1.4154     5.2647     3.0081 C
33 C33     2.2989     6.0375     2.2567 C
34 C34     2.6948     5.6245     0.9741 C
35 C35     2.1788     4.4200     0.4728 C
36 C36     3.9201    -2.6276    -0.8790 C
37 C37     5.0193    -2.0655    -1.5410 C
38 C38     6.2724    -2.6951    -1.5511 C
39 C39     6.4082    -3.9259    -0.8884 C
40 C40     5.3187    -4.5026    -0.2381 C
41 C41     4.0809    -3.8617    -0.2291 C
42 H42    -5.2522    -1.7573    -1.6614 H
43 H43    -3.6227    -3.6678    -2.6148 H
44 H44    -0.4227    -4.8034    -2.9927 H
45 H45     2.1718    -4.5095    -2.3361 H
46 H46    -3.7971     3.2290     0.4470 H
47 H47    -1.3921     4.2878     0.9942 H
48 H48     3.6475     2.1956     1.0145 H
49 H49     4.6360    -0.1596     0.2198 H
50 Co50    -0.4347    -0.5434    -0.3779 Co
51 P51    -0.6605    -1.6650     1.5235 P
52 C52    -1.7620    -3.1052     1.2963 C
53 C53    -1.3119    -4.2678     0.6523 C
54 C54    -3.1090    -3.0154     1.6804 C
55 C55    -2.1809    -5.3386     0.4448 C
56 H56    -0.2905    -4.3406     0.3023 H
57 C57    -3.9767    -4.0822     1.4564 C
58 H58    -3.4826    -2.1129     2.1505 H
59 C59    -3.5127    -5.2504     0.8489 C
60 H60    -1.8142    -6.2340    -0.0486 H
61 H61    -5.0173    -3.9970     1.7555 H
62 H62    -4.1900    -6.0829     0.6807 H
63 C63    -1.3668    -0.8534     3.0211 C
64 C64    -1.4638    -1.6370     4.1860 C
65 C65    -1.7881     0.4771     3.0626 C
66 C66    -1.9848    -1.0969     5.3578 C
67 H67    -1.1320    -2.6702     4.1753 H
68 C68    -2.3075     1.0186     4.2422 C
69 H69    -1.7149     1.0946     2.1855 H
70 C70    -2.4094     0.2353     5.3894 C
71 H71    -2.0563    -1.7147     6.2484 H
72 H72    -2.6291     2.0561     4.2505 H
73 H73    -2.8138     0.6560     6.3057 H
74 C74     0.9119    -2.2947     2.2373 C
75 C75     1.1466    -3.6386     2.5597 C
76 C76     1.8822    -1.3373     2.5689 C
77 C77     2.3457    -4.0178     3.1660 C
78 H78     0.3972    -4.3927     2.3587 H
79 C79     3.0757    -1.7189     3.1763 C
80 H80     1.7065    -0.2900     2.3542 H
81 C81     3.3169    -3.0624     3.4665 C
82 H82     2.5144    -5.0637     3.4065 H
83 H83     3.8197    -0.9631     3.4081 H
84 H84     4.2526    -3.3617     3.9297 H
85 H85     4.8983    -1.1099    -2.0398 H
86 H86     5.4360    -5.4569     0.2684 H
87 H87     3.2398    -4.2942     0.3020 H
88 H88    -5.5913     0.6783    -2.3025 H
89 H89    -7.2484     1.7125     2.2486 H
90 H90    -4.8627     1.1100     1.9012 H
91 H91     0.2269     3.4658     3.0845 H
92 H92     1.1152     5.5975     3.9980 H
93 H93     2.4843     4.0728    -0.5089 H
94 H94    -8.7998     1.8139     0.3238 H
95 H95     2.6649     6.9794     2.6540 H
96 H96     7.3637    -4.4414    -0.9051 H
97 C97     7.4261    -2.0640    -2.2380 C
98 C98     7.2542    -1.3667    -3.4453 C
99 C99     8.7177    -2.1415    -1.6914 C
100 C100     8.3376    -0.7649    -4.0831 C
101 H101     6.2677    -1.3158    -3.8965 H
102 C102     9.8016    -1.5405    -2.3297 C
103 H103     8.8670    -2.6552    -0.7463 H
104 C104     9.6162    -0.8487    -3.5282 C
105 H105     8.1833    -0.2353    -5.0193 H
106 H106    10.7909    -1.6045    -1.8847 H
107 H107    10.4603    -0.3787    -4.0250 H
108 C108     3.6290     6.4415     0.1617 C
109 C109     4.6942     7.1320     0.7632 C
110 C110     3.4712     6.5430    -1.2304 C
111 C111     5.5729     7.8974    -0.0019 C
112 H112     4.8488     7.0470     1.8349 H
113 C113     4.3503     7.3073    -1.9958 C
114 H114     2.6391     6.0374    -1.7112 H
115 C115     5.4053     7.9882    -1.3850 C
116 H116     6.3954     8.4164     0.4827 H
117 H117     4.2055     7.3771    -3.0704 H
118 H118     6.0907     8.5837    -1.9815 H
119 C119    -8.2331     1.2973    -2.2905 C
120 C120    -9.5660     0.8708    -2.1703 C
121 C121    -7.7961     1.7750    -3.5372 C
122 C122   -10.4332     0.9194    -3.2606 C
123 H123    -9.9158     0.4756    -1.2211 H
124 C124    -8.6626     1.8221    -4.6280 C
125 H125    -6.7763     2.1325    -3.6438 H
126 C126    -9.9853     1.3953    -4.4945 C
127 H127   -11.4585     0.5776    -3.1480 H
128 H128    -8.3058     2.2014    -5.5816 H
129 H129   -10.6612     1.4329    -5.3442 H
@<TRIPOS>BOND
1 1 7 Ar
2 1 9 Ar
3 1 36 1
4 2 12 Ar
5 2 14 Ar
6 2 30 1
7 3 17 Ar
8 3 19 Ar
9 3 24 1
10 4 5 Ar
11 4 8 Ar
12 4 22 Ar
13 5 6 Ar
14 5 44 1
15 6 7 Ar
16 6 45 1
17 7 8 Ar
18 8 50 1
19 9 10 Ar
20 9 13 1
21 10 11 2
22 10 49 1
23 11 12 Ar
24 11 48 1
25 12 13 1
26 13 50 1
27 14 15 Ar
28 14 18 1
29 15 16 2
30 15 47 1
31 16 17 Ar
32 16 46 1
33 17 18 1
34 18 50 1
35 19 20 Ar
36 19 23 Ar
37 20 21 2
38 20 42 1
39 21 22 Ar
40 21 43 1
41 22 23 Ar
42 23 50 1
43 24 25 Ar
44 24 29 Ar
45 25 26 Ar
46 25 88 1
47 26 27 Ar
48 26 119 1
49 27 28 Ar
50 27 94 1
51 28 29 Ar
52 28 89 1
53 29 90 1
54 30 31 Ar
55 30 35 Ar
56 31 32 Ar
57 31 91 1
58 32 33 Ar
59 32 92 1
60 33 34 Ar
61 33 95 1
62 34 35 Ar
63 34 108 1
64 35 93 1
65 36 37 Ar
66 36 41 Ar
67 37 38 Ar
68 37 85 1
69 38 39 Ar
70 38 97 1
71 39 40 Ar
72 39 96 1
73 40 41 Ar
74 40 86 1
75 41 87 1
76 50 51 1
77 51 52 1
78 51 63 1
79 51 74 1
80 52 53 Ar
81 52 54 Ar
82 53 55 Ar
83 53 56 1
84 54 57 Ar
85 54 58 1
86 55 59 Ar
87 55 60 1
88 57 59 Ar
89 57 61 1
90 59 62 1
91 63 64 Ar
92 63 65 Ar
93 64 66 Ar
94 64 67 1
95 65 68 Ar
96 65 69 1
97 66 70 Ar
98 66 71 1
99 68 70 Ar
100 68 72 1
101 70 73 1
102 74 75 Ar
103 74 76 Ar
104 75 77 Ar
105 75 78 1
106 76 79 Ar
107 76 80 1
108 77 81 Ar
109 77 82 1
110 79 81 Ar
111 79 83 1
112 81 84 1
113 97 98 Ar
114 97 99 Ar
115 98 100 Ar
116 98 101 1
117 99 102 Ar
118 99 103 1
119 100 104 Ar
120 100 105 1
121 102 104 Ar
122 102 106 1
123 104 107 1
124 108 109 Ar
125 108 110 Ar
126 109 111 Ar
127 109 112 1
128 110 113 Ar
129 110 114 1
130 111 115 Ar
131 111 116 1
132 113 115 Ar
133 113 117 1
134 115 118 1
135 119 120 Ar
136 119 121 Ar
137 120 122 Ar
138 120 123 1
139 121 124 Ar
140 121 125 1
141 122 126 Ar
142 122 127 1
143 124 126 Ar
144 124 128 1
145 126 129 1
