# F10CFe_OH3_OPT
# Created by GaussView 6.0.16
#

#
#

@<TRIPOS>MOLECULE
Molecule Name
66 76
SMALL
NO_CHARGES


@<TRIPOS>ATOM
1 C1     3.3099    -0.9162     0.0242 C
2 C2     0.0128     2.7338    -0.1571 C
3 C3    -3.3846    -0.8259    -0.0366 C
4 C4     0.6511    -3.2697     0.0884 C
5 C5     1.7227    -4.2161     0.1206 C
6 C6     2.9013    -3.4866     0.1058 C
7 C7     2.5445    -2.0903     0.0709 C
8 N8     1.1793    -2.0183     0.0644 N
9 C9     2.7506     0.4010    -0.0259 C
10 C10     3.4859     1.6329    -0.0759 C
11 C11     2.5724     2.6581    -0.1385 C
12 C12     1.2640     2.0641    -0.1043 C
13 N13     1.4049     0.6958    -0.0397 N
14 C14    -1.2560     2.0960    -0.1523 C
15 C15    -2.5469     2.7275    -0.1576 C
16 C16    -3.4893     1.7268    -0.1320 C
17 C17    -2.7887     0.4747    -0.0926 C
18 N18    -1.4353     0.7315    -0.1087 N
19 C19    -2.6528    -2.0212    -0.0042 C
20 C20    -3.0480    -3.4050     0.0831 C
21 C21    -1.8900    -4.1662     0.1181 C
22 C22    -0.7928    -3.2508     0.0573 C
23 N23    -1.2861    -1.9877    -0.0217 N
24 C24    -4.8663    -0.9151    -0.0007 C
25 C25    -5.5818    -1.5436    -1.0250 C
26 C26    -6.9686    -1.6493    -0.9961 C
27 C27    -7.6764    -1.1172     0.0773 C
28 C28    -6.9936    -0.4862     1.1131 C
29 C29    -5.6067    -0.3958     1.0667 C
30 F30    -4.9357    -2.0547    -2.0821 F
31 F31    -7.6249    -2.2508    -1.9950 F
32 F32    -9.0080    -1.2119     0.1140 F
33 F33    -7.6729     0.0171     2.1502 F
34 F34    -4.9815     0.2016     2.0905 F
35 C35     4.7889    -1.0487     0.0120 C
36 C36     5.4790    -1.6305     1.0804 C
37 C37     6.8628    -1.7737     1.0721 C
38 C38     7.5941    -1.3296    -0.0252 C
39 C39     6.9368    -0.7478    -1.1054 C
40 C40     5.5525    -0.6191    -1.0788 C
41 F41     4.8122    -2.0592     2.1610 F
42 F42     7.4936    -2.3269     2.1145 F
43 F43     8.9228    -1.4618    -0.0426 F
44 F44     7.6375    -0.3288    -2.1655 F
45 F45     4.9519    -0.0750    -2.1464 F
46 C46     0.0297     4.2196    -0.2328 C
47 C47     0.6409     4.9700     0.7787 C
48 C48     0.6619     6.3655     0.7038 C
49 C49     0.0761     7.0207    -0.3846 C
50 C50    -0.5296     6.2707    -1.3927 C
51 C51    -0.5612     4.8799    -1.3244 C
52 H52     1.6253    -5.2933     0.1449 H
53 H53     3.9067    -3.8848     0.1129 H
54 H54     4.5626     1.7253    -0.0682 H
55 H55     2.7827     3.7149    -0.2062 H
56 H56    -2.7269     3.7921    -0.1704 H
57 H57    -4.5631     1.8485    -0.1404 H
58 H58    -4.0638    -3.7742     0.1213 H
59 H59    -1.8221    -5.2437     0.1860 H
60 H60     0.0942     8.1069    -0.4402 H
61 H61    -0.9775     6.7796    -2.2413 H
62 H62    -1.0227     4.3008    -2.1169 H
63 H63     1.0904     4.4817     1.6362 H
64 O64     1.2682     7.0346     1.7251 O
65 H65     1.2056     7.9899     1.5603 H
66 Fe66    -0.0331    -0.5706    -0.0309 Fe
@<TRIPOS>BOND
1 1 7 Ar
2 1 9 Ar
3 1 35 1
4 2 12 Ar
5 2 14 Ar
6 2 46 1
7 3 17 Ar
8 3 19 Ar
9 3 24 1
10 4 5 Ar
11 4 8 Ar
12 4 22 Ar
13 5 6 Ar
14 5 52 1
15 6 7 Ar
16 6 53 1
17 7 8 Ar
18 8 66 1
19 9 10 Ar
20 9 13 Ar
21 10 11 2
22 10 54 1
23 11 12 Ar
24 11 55 1
25 12 13 Ar
26 13 66 1
27 14 15 Ar
28 14 18 Ar
29 15 16 2
30 15 56 1
31 16 17 Ar
32 16 57 1
33 17 18 Ar
34 18 66 1
35 19 20 Ar
36 19 23 Ar
37 20 21 Ar
38 20 58 1
39 21 22 Ar
40 21 59 1
41 22 23 Ar
42 23 66 1
43 24 25 Ar
44 24 29 Ar
45 25 26 Ar
46 25 30 1
47 26 27 Ar
48 26 31 1
49 27 28 Ar
50 27 32 1
51 28 29 Ar
52 28 33 1
53 29 34 1
54 35 36 Ar
55 35 40 Ar
56 36 37 Ar
57 36 41 1
58 37 38 Ar
59 37 42 1
60 38 39 Ar
61 38 43 1
62 39 40 Ar
63 39 44 1
64 40 45 1
65 46 47 Ar
66 46 51 Ar
67 47 48 Ar
68 47 63 1
69 48 49 Ar
70 48 64 1
71 49 50 Ar
72 49 60 1
73 50 51 Ar
74 50 61 1
75 51 62 1
76 64 65 1
