# F10Cu_OH
# Created by GaussView 6.0.16
#

#
#

@<TRIPOS>MOLECULE
Molecule Name
66 76
SMALL
NO_CHARGES


@<TRIPOS>ATOM
1 C1     3.3253    -0.8151    -0.0440 C
2 C2    -0.0020     2.7881    -0.1354 C
3 C3    -3.3768    -0.7716     0.0013 C
4 C4     0.6677    -3.1805    -0.0001 C
5 C5     1.7456    -4.0988     0.1708 C
6 C6     2.9160    -3.3609     0.1386 C
7 C7     2.5575    -1.9816    -0.0434 C
8 N8     1.1921    -1.9308    -0.1960 N
9 C9     2.7510     0.4720    -0.0877 C
10 C10     3.4496     1.7055    -0.3215 C
11 C11     2.5207     2.7101    -0.3593 C
12 C12     1.2331     2.1176    -0.1359 C
13 N13     1.4031     0.7604     0.0686 N
14 C14    -1.2463     2.1373    -0.0993 C
15 C15    -2.5279     2.7597     0.0823 C
16 C16    -3.4676     1.7646     0.1204 C
17 C17    -2.7848     0.5098    -0.0296 C
18 N18    -1.4347     0.7698    -0.2082 N
19 C19    -2.6226    -1.9458     0.0471 C
20 C20    -3.0005    -3.3290    -0.0570 C
21 C21    -1.8404    -4.0820    -0.0727 C
22 C22    -0.7482    -3.1699     0.0354 C
23 N23    -1.2546    -1.9062     0.1713 N
24 C24    -4.8596    -0.8836     0.0096 C
25 C25    -5.5523    -1.4353    -1.0716 C
26 C26    -6.9372    -1.5686    -1.0693 C
27 C27    -7.6673    -1.1380     0.0341 C
28 C28    -7.0073    -0.5827     1.1263 C
29 C29    -5.6211    -0.4700     1.1061 C
30 F30    -4.8828    -1.8570    -2.1542 F
31 F31    -7.5701    -2.0994    -2.1225 F
32 F32    -8.9981    -1.2567     0.0451 F
33 F33    -7.7070    -0.1724     2.1910 F
34 F34    -5.0171     0.0555     2.1821 F
35 C35     4.8068    -0.9455    -0.0186 C
36 C36     5.4733    -1.3939     1.1241 C
37 C37     6.8560    -1.5461     1.1578 C
38 C38     7.6081    -1.2397     0.0278 C
39 C39     6.9733    -0.7887    -1.1257 C
40 C40     5.5888    -0.6540    -1.1389 C
41 F41     4.7786    -1.6933     2.2310 F
42 F42     7.4658    -1.9779     2.2683 F
43 F43     8.9368    -1.3783     0.0503 F
44 F44     7.6952    -0.4991    -2.2151 F
45 F45     5.0074    -0.2293    -2.2700 F
46 C46     0.0005     4.2749    -0.2031 C
47 C47     0.5690     5.0532     0.8254 C
48 C48     0.5624     6.4491     0.7393 C
49 C49    -0.0121     7.0824    -0.3613 C
50 C50    -0.5888     6.3281    -1.3838 C
51 C51    -0.5797     4.9371    -1.2940 C
52 H52     1.6499    -5.1674     0.3104 H
53 H53     3.9220    -3.7317     0.2786 H
54 H54     4.5172     1.7976    -0.4608 H
55 H55     2.6914     3.7604    -0.5462 H
56 H56    -2.6864     3.8218     0.1986 H
57 H57    -4.5335     1.8802     0.2544 H
58 H58    -4.0125    -3.6942    -0.1633 H
59 H59    -1.7600    -5.1577    -0.1567 H
60 H60     1.0020     7.0363     1.5433 H
61 H61    -0.0093     8.1674    -0.4139 H
62 H62    -1.0369     6.8155    -2.2439 H
63 H63    -1.0196     4.3375    -2.0853 H
64 O64     1.0965     4.4006     1.8991 O
65 H65     1.4439     5.0551     2.5273 H
66 Cu66    -0.0219    -0.4916    -0.0381 Cu
@<TRIPOS>BOND
1 1 7 Ar
2 1 9 Ar
3 1 35 1
4 2 12 Ar
5 2 14 Ar
6 2 46 1
7 3 17 Ar
8 3 19 Ar
9 3 24 1
10 4 5 Ar
11 4 8 Ar
12 4 22 Ar
13 5 6 2
14 5 52 1
15 6 7 Ar
16 6 53 1
17 7 8 Ar
18 8 66 1
19 9 10 Ar
20 9 13 1
21 10 11 2
22 10 54 1
23 11 12 Ar
24 11 55 1
25 12 13 1
26 13 66 1
27 14 15 Ar
28 14 18 1
29 15 16 2
30 15 56 1
31 16 17 Ar
32 16 57 1
33 17 18 1
34 18 66 1
35 19 20 Ar
36 19 23 Ar
37 20 21 2
38 20 58 1
39 21 22 Ar
40 21 59 1
41 22 23 Ar
42 23 66 1
43 24 25 Ar
44 24 29 Ar
45 25 26 Ar
46 25 30 1
47 26 27 Ar
48 26 31 1
49 27 28 Ar
50 27 32 1
51 28 29 Ar
52 28 33 1
53 29 34 1
54 35 36 Ar
55 35 40 Ar
56 36 37 Ar
57 36 41 1
58 37 38 Ar
59 37 42 1
60 38 39 Ar
61 38 43 1
62 39 40 Ar
63 39 44 1
64 40 45 1
65 46 47 Ar
66 46 51 Ar
67 47 48 Ar
68 47 64 1
69 48 49 Ar
70 48 60 1
71 49 50 Ar
72 49 61 1
73 50 51 Ar
74 50 62 1
75 51 63 1
76 64 65 1
