# F10CFe_OH2_OPT
# Created by GaussView 6.0.16
#

#
#

@<TRIPOS>MOLECULE
Molecule Name
66 76
SMALL
NO_CHARGES


@<TRIPOS>ATOM
1 C1    -3.3480    -0.8792     0.0177 C
2 C2    -0.0002     2.7163    -0.0058 C
3 C3     3.3492    -0.8778    -0.0179 C
4 C4    -0.7073    -3.2586     0.0167 C
5 C5    -1.7915    -4.1752    -0.1366 C
6 C6    -2.9568    -3.4311    -0.1181 C
7 C7    -2.5890    -2.0492     0.0367 C
8 N8    -1.2231    -2.0035     0.1868 N
9 C9    -2.7655     0.4080     0.0351 C
10 C10    -3.4560     1.6439     0.2682 C
11 C11    -2.5235     2.6477     0.2753 C
12 C12    -1.2415     2.0499     0.0277 C
13 N13    -1.4198     0.6882    -0.1503 N
14 C14     1.2415     2.0504    -0.0372 C
15 C15     2.5231     2.6478    -0.2873 C
16 C16     3.4561     1.6445    -0.2765 C
17 C17     2.7662     0.4091    -0.0390 C
18 N18     1.4204     0.6894     0.1457 N
19 C19     2.5908    -2.0482    -0.0349 C
20 C20     2.9592    -3.4295     0.1232 C
21 C21     1.7942    -4.1741     0.1429 C
22 C22     0.7096    -3.2583    -0.0128 C
23 N23     1.2249    -2.0034    -0.1857 N
24 C24     4.8320    -0.9984    -0.0036 C
25 C25     5.5096    -1.4491     1.1315 C
26 C26     6.8933    -1.5933     1.1538 C
27 C27     7.6349    -1.2766     0.0196 C
28 C28     6.9886    -0.8231    -1.1266 C
29 C29     5.6033    -0.6963    -1.1282 C
30 F30     4.8247    -1.7595     2.2416 F
31 F31     7.5140    -2.0281     2.2570 F
32 F32     8.9644    -1.4079     0.0310 F
33 F33     7.7004    -0.5230    -2.2196 F
34 F34     5.0101    -0.2678    -2.2518 F
35 C35    -4.8307    -1.0003     0.0050 C
36 C36    -5.5093    -1.4581    -1.1268 C
37 C37    -6.8931    -1.6023    -1.1470 C
38 C38    -7.6337    -1.2787    -0.0143 C
39 C39    -6.9866    -0.8181     1.1286 C
40 C40    -5.6013    -0.6914     1.1284 C
41 F41    -4.8254    -1.7756    -2.2354 F
42 F42    -7.5145    -2.0440    -2.2470 F
43 F43    -8.9632    -1.4102    -0.0237 F
44 F44    -7.6974    -0.5113     2.2204 F
45 F45    -5.0073    -0.2562     2.2490 F
46 C46    -0.0014     4.1989    -0.0075 C
47 C47    -0.7599     4.9216    -0.9466 C
48 C48    -0.7664     6.3105    -0.9542 C
49 C49    -0.0121     7.0150    -0.0079 C
50 C50     0.7487     6.3152     0.9360 C
51 C51     0.7530     4.9236     0.9293 C
52 H52    -1.7016    -5.2470    -0.2548 H
53 H53    -3.9649    -3.7985    -0.2526 H
54 H54    -4.5191     1.7414     0.4348 H
55 H55    -2.6904     3.6975     0.4659 H
56 H56     2.6888     3.6968    -0.4834 H
57 H57     4.5192     1.7415    -0.4445 H
58 H58     3.9675    -3.7960     0.2590 H
59 H59     1.7047    -5.2457     0.2633 H
60 H60    -1.3419     6.8645    -1.6887 H
61 H61     1.3284     6.8584     1.6793 H
62 H62     1.3344     4.3885     1.6733 H
63 H63    -1.3370     4.3814    -1.6903 H
64 O64    -0.0572     8.3743    -0.0539 O
65 H65     0.5065     8.7362     0.6501 H
66 Cu66     0.0006    -0.5714    -0.0010 Cu
@<TRIPOS>BOND
1 1 7 Ar
2 1 9 Ar
3 1 35 1
4 2 12 Ar
5 2 14 Ar
6 2 46 1
7 3 17 Ar
8 3 19 Ar
9 3 24 1
10 4 5 Ar
11 4 8 Ar
12 4 22 Ar
13 5 6 2
14 5 52 1
15 6 7 Ar
16 6 53 1
17 7 8 Ar
18 8 66 1
19 9 10 Ar
20 9 13 1
21 10 11 2
22 10 54 1
23 11 12 Ar
24 11 55 1
25 12 13 1
26 13 66 1
27 14 15 Ar
28 14 18 1
29 15 16 2
30 15 56 1
31 16 17 Ar
32 16 57 1
33 17 18 1
34 18 66 1
35 19 20 Ar
36 19 23 Ar
37 20 21 2
38 20 58 1
39 21 22 Ar
40 21 59 1
41 22 23 Ar
42 23 66 1
43 24 25 Ar
44 24 29 Ar
45 25 26 Ar
46 25 30 1
47 26 27 Ar
48 26 31 1
49 27 28 Ar
50 27 32 1
51 28 29 Ar
52 28 33 1
53 29 34 1
54 35 36 Ar
55 35 40 Ar
56 36 37 Ar
57 36 41 1
58 37 38 Ar
59 37 42 1
60 38 39 Ar
61 38 43 1
62 39 40 Ar
63 39 44 1
64 40 45 1
65 46 47 Ar
66 46 51 Ar
67 47 48 Ar
68 47 63 1
69 48 49 Ar
70 48 60 1
71 49 50 Ar
72 49 64 1
73 50 51 Ar
74 50 61 1
75 51 62 1
76 64 65 1
