# Ga_F15_SO2Cl_OPT
# Created by GaussView 6.0.16
#

#
#

@<TRIPOS>MOLECULE
Molecule Name
81 90
SMALL
NO_CHARGES


@<TRIPOS>ATOM
1 C1    -3.0955     0.2434    -0.3127 C
2 C2     0.8239     3.2125    -0.3979 C
3 C3     3.5456    -0.8626    -0.3140 C
4 C4    -0.8916    -2.5568    -0.3697 C
5 C5    -2.0570    -3.3080    -0.6431 C
6 C6    -3.1112    -2.3924    -0.6220 C
7 C7    -2.5717    -1.0749    -0.3328 C
8 N8    -1.2308    -1.2591    -0.1766 N
9 C9    -2.2927     1.4173    -0.3193 C
10 C10    -2.7871     2.7714    -0.3881 C
11 C11    -1.7035     3.6062    -0.4354 C
12 C12    -0.5257     2.7791    -0.3767 C
13 N13    -0.9141     1.4645    -0.3072 N
14 C14     1.9661     2.3720    -0.4020 C
15 C15     3.3474     2.7692    -0.5109 C
16 C16     4.0985     1.6246    -0.4869 C
17 C17     3.1906     0.5125    -0.3492 C
18 N18     1.9048     1.0065    -0.3049 N
19 C19     2.6057    -1.9156    -0.2977 C
20 C20     2.7629    -3.3264    -0.4247 C
21 C21     1.4718    -3.8525    -0.4837 C
22 C22     0.5403    -2.7737    -0.3603 C
23 N23     1.2572    -1.6445    -0.2405 N
24 C24     7.1837    -1.1450     0.7260 C
25 C25     5.8310    -0.8243     0.7180 C
26 C26     4.9890    -1.2076    -0.3321 C
27 C27     5.5622    -1.9280    -1.3852 C
28 C28     6.9129    -2.2594    -1.3955 C
29 C29     0.8890     6.8378     0.7210 C
30 C30     0.6869     5.4626     0.6966 C
31 C31     1.0545     4.6812    -0.4035 C
32 C32     1.6392     5.3376    -1.4899 C
33 C33     1.8535     6.7118    -1.4860 C
34 C34    -6.6527     1.1024    -1.3264 C
35 C35    -5.2701     0.9831    -1.3534 C
36 C36    -4.5636     0.4348    -0.2805 C
37 C37    -5.2928     0.0311     0.8396 C
38 C38    -6.6778     0.1315     0.8830 C
39 C39     1.4757     7.4634    -0.3763 C
40 C40     7.7251    -1.8663    -0.3351 C
41 C41    -7.3582     0.6661    -0.2070 C
42 C42     0.3268     0.1156     2.3730 C
43 C43     0.4190    -1.0316     3.1722 C
44 C44     0.2814     1.3463     3.0427 C
45 C45     0.4625    -0.9033     4.5620 C
46 H46     0.4581    -2.0257     2.7330 H
47 C47     0.3315     1.3735     4.4377 C
48 H48     0.2066     2.2868     2.5014 H
49 N49     0.4213     0.2746     5.1973 N
50 H50     0.5341    -1.7879     5.1934 H
51 H51     0.2973     2.3236     4.9694 H
52 F52     0.5312     7.5573     1.7878 F
53 F53     5.3361    -0.1371     1.7550 F
54 F54     7.9626    -0.7701     1.7441 F
55 F55     9.0204    -2.1779    -0.3361 F
56 F56     7.4338    -2.9423    -2.4180 F
57 F57     4.8114    -2.3079    -2.4274 F
58 F58     2.0071     4.6417    -2.5737 F
59 F59     2.4100     7.3130    -2.5412 F
60 F60     1.6768     8.7808    -0.3634 F
61 F61     0.1299     4.8849     1.7717 F
62 F62    -4.6519    -0.4639     1.9058 F
63 F63    -4.6154     1.3806    -2.4523 F
64 F64    -7.3106     1.6154    -2.3704 F
65 F65    -7.3528    -0.2819     1.9578 F
66 F66    -8.6867     0.7696    -0.1773 F
67 S67    -4.7163    -2.9609    -1.0613 S
68 S68     1.0987    -5.5469    -0.6265 S
69 O69    -5.4917    -1.9247    -1.7326 O
70 O70    -4.5907    -4.2958    -1.6311 O
71 O71    -0.1595    -5.7204    -1.3450 O
72 O72     2.3034    -6.2853    -0.9811 O
73 Cl73    -5.6454    -3.2511     0.8393 Cl
74 Cl74     0.6626    -6.0585     1.4042 Cl
75 Ga75     0.2761     0.0119     0.3900 Ga
76 H76     5.1723     1.5513    -0.5799 H
77 H77     3.7100     3.7818    -0.6076 H
78 H78     3.6816    -3.8895    -0.4939 H
79 H79    -1.7151     4.6826    -0.5235 H
80 H80    -3.8271     3.0601    -0.4119 H
81 H81    -2.1174    -4.3608    -0.8700 H
@<TRIPOS>BOND
1 1 7 Ar
2 1 9 Ar
3 1 36 1
4 2 12 Ar
5 2 14 Ar
6 2 31 1
7 3 17 Ar
8 3 19 Ar
9 3 26 1
10 4 5 Ar
11 4 8 Ar
12 4 22 1
13 5 6 Ar
14 5 81 1
15 6 7 1
16 6 67 1
17 7 8 Ar
18 8 75 1
19 9 10 Ar
20 9 13 Ar
21 10 11 2
22 10 80 1
23 11 12 Ar
24 11 79 1
25 12 13 Ar
26 13 75 1
27 14 15 Ar
28 14 18 Ar
29 15 16 2
30 15 77 1
31 16 17 Ar
32 16 76 1
33 17 18 Ar
34 18 75 1
35 19 20 Ar
36 19 23 Ar
37 20 21 Ar
38 20 78 1
39 21 22 Ar
40 21 68 1
41 22 23 Ar
42 23 75 1
43 24 25 Ar
44 24 40 Ar
45 24 54 1
46 25 26 Ar
47 25 53 1
48 26 27 Ar
49 27 28 Ar
50 27 57 1
51 28 40 Ar
52 28 56 1
53 29 30 Ar
54 29 39 Ar
55 29 52 1
56 30 31 Ar
57 30 61 1
58 31 32 Ar
59 32 33 Ar
60 32 58 1
61 33 39 Ar
62 33 59 1
63 34 35 Ar
64 34 41 Ar
65 34 64 1
66 35 36 Ar
67 35 63 1
68 36 37 Ar
69 37 38 Ar
70 37 62 1
71 38 41 Ar
72 38 65 1
73 39 60 1
74 40 55 1
75 41 66 1
76 42 43 Ar
77 42 44 Ar
78 42 75 1
79 43 45 Ar
80 43 46 1
81 44 47 Ar
82 44 48 1
83 45 49 Ar
84 45 50 1
85 47 49 Ar
86 47 51 1
87 67 69 2
88 67 70 2
89 68 71 2
90 68 72 2
