# N3_N3_O3_OPT
# Created by GaussView 6.0.16
#

#
#

@<TRIPOS>MOLECULE
Molecule Name
79 86
SMALL
NO_CHARGES


@<TRIPOS>ATOM
1 C1    -3.4024    -1.3673     0.0453 C
2 C2     0.0344     2.1936    -0.0636 C
3 C3     3.5435    -1.2031     0.1967 C
4 C4    -0.5700    -3.5709     0.4275 C
5 C5    -1.3937    -4.4141    -0.3499 C
6 C6    -2.6105    -3.7649    -0.5393 C
7 C7    -2.5505    -2.5091     0.1150 C
8 N8    -1.3201    -2.4511     0.7603 N
9 C9    -2.8350    -0.0673     0.0886 C
10 C10    -3.3599     1.1058     0.7040 C
11 C11    -2.3857     2.0767     0.6824 C
12 C12    -1.2189     1.5438     0.0463 C
13 N13    -1.5398     0.2458    -0.3428 N
14 C14     1.3143     1.5692    -0.1114 C
15 C15     2.5750     2.2564    -0.3738 C
16 C16     3.5650     1.3241    -0.2717 C
17 C17     2.9167     0.0568     0.0244 C
18 N18     1.5570     0.2526     0.1213 N
19 C19     2.7922    -2.3768     0.4625 C
20 C20     3.0904    -3.7706     0.3536 C
21 C21     1.8905    -4.4704     0.4032 C
22 C22     0.8424    -3.5219     0.5558 C
23 N23     1.4378    -2.2947     0.6484 N
24 C24     5.0036    -1.3519     0.0152 C
25 C25     5.7676    -2.0390     0.9777 C
26 C26     7.1366    -2.2095     0.8180 C
27 C27     7.0241    -1.0078    -1.2980 C
28 C28     5.6554    -0.8477    -1.1263 C
29 C29    -4.8514    -1.5363    -0.0617 C
30 C30    -5.6540    -0.5716    -0.7113 C
31 C31    -7.0273    -0.7297    -0.8131 C
32 C32    -6.8585    -2.8547     0.3658 C
33 C33    -5.4882    -2.6783     0.4740 C
34 C34    -0.0139     3.6756     0.0016 C
35 C35    -0.9083     4.3955    -0.8143 C
36 C36    -0.9805     5.7810    -0.7575 C
37 C37     0.7458     5.7826     0.9609 C
38 C38     0.8050     4.3971     0.8925 C
39 H39    -1.0706    -5.3354    -0.8150 H
40 H40    -3.4233    -4.0880    -1.1747 H
41 H41    -4.3194     1.1553     1.1995 H
42 H42    -2.4302     3.0475     1.1543 H
43 H43     2.6899     3.3025    -0.6197 H
44 H44     4.6271     1.4879    -0.3850 H
45 H45     4.0758    -4.1912     0.2123 H
46 H46     1.7588    -5.5415     0.3324 H
47 H47     1.0074    -1.3628     0.5557 H
48 C48    -7.6180    -1.8743    -0.2753 C
49 C49     7.7493    -1.6873    -0.3200 C
50 C50    -0.1471     6.4596     0.1307 C
51 C51    -1.0623    -1.6164     1.9389 C
52 H52    -0.4805    -2.1947     2.6580 H
53 H53    -0.5258    -0.6975     1.6974 H
54 H54    -2.0191    -1.3512     2.3897 H
55 C55    -0.8945    -0.4325    -1.4670 C
56 H56    -0.5432     0.3219    -2.1749 H
57 H57    -0.0407    -1.0305    -1.1577 H
58 H58    -1.6304    -1.0692    -1.9578 H
59 H59     5.2796    -2.4238     1.8666 H
60 H60     7.7308    -2.7279     1.5596 H
61 H61     7.5298    -0.6294    -2.1773 H
62 H62     5.0754    -0.3495    -1.8946 H
63 H63    -5.1840     0.2955    -1.1610 H
64 H64    -7.6421     0.0054    -1.3169 H
65 H65    -7.3485    -3.7256     0.7824 H
66 H66    -4.8959    -3.4197     0.9982 H
67 H67    -1.5415     3.8567    -1.5106 H
68 H68    -1.6592     6.3372    -1.3914 H
69 H69     1.3658     6.3393     1.6520 H
70 H70     1.4772     3.8594     1.5514 H
71 N71    -9.0611    -2.0513    -0.3873 N
72 N72     9.1904    -1.8660    -0.4968 N
73 N73    -0.2170     7.9187     0.1993 N
74 O74     0.5396     8.4975     0.9824 O
75 O75    -1.0297     8.4931    -0.5291 O
76 O76     9.8064    -2.4868     0.3724 O
77 O77     9.7126    -1.3874    -1.5060 O
78 O78    -9.5549    -3.0868     0.0686 O
79 O79    -9.7142    -1.1565    -0.9317 O
@<TRIPOS>BOND
1 1 7 Ar
2 1 9 Ar
3 1 29 1
4 2 12 Ar
5 2 14 Ar
6 2 34 1
7 3 17 Ar
8 3 19 Ar
9 3 24 1
10 4 5 Ar
11 4 8 1
12 4 22 Ar
13 5 6 Ar
14 5 39 1
15 6 7 Ar
16 6 40 1
17 7 8 1
18 8 51 1
19 9 10 Ar
20 9 13 1
21 10 11 2
22 10 41 1
23 11 12 Ar
24 11 42 1
25 12 13 1
26 13 55 1
27 14 15 1
28 14 18 Ar
29 15 16 2
30 15 43 1
31 16 17 1
32 16 44 1
33 17 18 Ar
34 19 20 Ar
35 19 23 Ar
36 20 21 Ar
37 20 45 1
38 21 22 Ar
39 21 46 1
40 22 23 Ar
41 23 47 1
42 24 25 Ar
43 24 28 Ar
44 25 26 Ar
45 25 59 1
46 26 49 Ar
47 26 60 1
48 27 28 Ar
49 27 49 Ar
50 27 61 1
51 28 62 1
52 29 30 Ar
53 29 33 Ar
54 30 31 Ar
55 30 63 1
56 31 48 Ar
57 31 64 1
58 32 33 2
59 32 48 Ar
60 32 65 1
61 33 66 1
62 34 35 Ar
63 34 38 Ar
64 35 36 Ar
65 35 67 1
66 36 50 Ar
67 36 68 1
68 37 38 Ar
69 37 50 Ar
70 37 69 1
71 38 70 1
72 48 71 1
73 49 72 1
74 50 73 1
75 51 52 1
76 51 53 1
77 51 54 1
78 55 56 1
79 55 57 1
80 55 58 1
81 71 78 Ar
82 71 79 Ar
83 72 76 Ar
84 72 77 Ar
85 73 74 Ar
86 73 75 Ar
