# N3CoL-PPh3_OPT
# Created by GaussView 6.0.16
#

#
#

@<TRIPOS>MOLECULE
Molecule Name
93 103
SMALL
NO_CHARGES


@<TRIPOS>ATOM
1 C1     0.0222    -3.3750    -1.2511 C
2 C2    -3.3573     0.1177    -1.3903 C
3 C3     0.3526     3.2668    -1.3357 C
4 C4     2.5601    -0.8857    -1.2654 C
5 C5     3.4243    -2.0349    -1.2960 C
6 C6     2.6007    -3.1598    -1.2709 C
7 C7     1.2381    -2.6942    -1.2223 C
8 N8     1.2637    -1.3218    -1.1990 N
9 C9    -1.2250    -2.7415    -1.2670 C
10 C10    -2.5137    -3.4007    -1.2785 C
11 C11    -3.4773    -2.4172    -1.3023 C
12 C12    -2.7823    -1.1491    -1.3079 C
13 N13    -1.4205    -1.3708    -1.2710 N
14 C14    -2.6563     1.3212    -1.4526 C
15 C15    -3.2187     2.6499    -1.5577 C
16 C16    -2.1637     3.5363    -1.5089 C
17 C17    -0.9498     2.7577    -1.3905 C
18 N18    -1.2803     1.4129    -1.3664 N
19 C19     1.4949     2.4688    -1.3110 C
20 C20     2.8981     2.7947    -1.3768 C
21 C21     3.6041     1.5913    -1.3915 C
22 C22     2.6297     0.5349    -1.3218 C
23 N23     1.3840     1.1015    -1.2794 N
24 Co24    -0.0920    -0.0307    -1.0346 Co
25 P25    -0.0360     0.0558     1.1744 P
26 C26    -0.5741     1.6332     1.9500 C
27 C27     0.1707     2.2523     2.9657 C
28 C28    -1.7964     2.2046     1.5666 C
29 C29    -0.2853     3.4303     3.5584 C
30 H30     1.1056     1.8217     3.3005 H
31 C31    -2.2544     3.3750     2.1682 C
32 H32    -2.4002     1.7294     0.8066 H
33 C33    -1.4952     3.9983     3.1594 C
34 H34     0.3085     3.8995     4.3377 H
35 H35    -3.2011     3.8011     1.8498 H
36 H36    -1.8469     4.9168     3.6211 H
37 C37     1.6435    -0.2023     1.8639 C
38 C38     1.9997    -1.3170     2.6346 C
39 C39     2.6156     0.7774     1.6002 C
40 C40     3.3043    -1.4616     3.1075 C
41 H41     1.2652    -2.0717     2.8829 H
42 C42     3.9124     0.6391     2.0912 C
43 H43     2.3552     1.6644     1.0370 H
44 C44     4.2654    -0.4876     2.8353 C
45 H45     3.5623    -2.3345     3.7003 H
46 H46     4.6454     1.4124     1.8811 H
47 H47     5.2794    -0.6009     3.2085 H
48 C48    -1.1123    -1.2141     1.9398 C
49 C49    -0.8061    -2.5724     1.7523 C
50 C50    -2.2670    -0.8713     2.6580 C
51 C51    -1.6323    -3.5616     2.2809 C
52 H52     0.0723    -2.8578     1.1895 H
53 C53    -3.1000    -1.8663     3.1700 C
54 H54    -2.5200     0.1688     2.8223 H
55 C55    -2.7862    -3.2128     2.9839 C
56 H56    -1.3770    -4.6067     2.1303 H
57 H57    -3.9926    -1.5841     3.7211 H
58 H58    -3.4358    -3.9857     3.3850 H
59 H59     0.4720     4.3451    -1.3588 H
60 H60     0.0348    -4.4603    -1.2644 H
61 H61    -4.4403     0.1712    -1.4353 H
62 C62    -4.6828     2.9396    -1.6845 C
63 H63    -4.8798     4.0159    -1.6980 H
64 H64    -5.1027     2.5182    -2.6074 H
65 H65    -5.2555     2.5120    -0.8505 H
66 C66    -2.1980     5.0317    -1.5625 C
67 H67    -1.6249     5.4204    -2.4142 H
68 H68    -3.2210     5.4076    -1.6577 H
69 H69    -1.7662     5.4751    -0.6555 H
70 C70     3.4383     4.1903    -1.4523 C
71 H71     4.5084     4.2246    -1.2251 H
72 H72     3.3049     4.6293    -2.4509 H
73 H73     2.9309     4.8539    -0.7412 H
74 C74     5.0901     1.4182    -1.4559 C
75 H75     5.4137     1.0018    -2.4185 H
76 H76     5.6078     2.3741    -1.3283 H
77 H77     5.4479     0.7388    -0.6746 H
78 C78     4.9216    -2.0268    -1.3431 C
79 H79     5.3168    -3.0352    -1.5017 H
80 H80     5.3036    -1.3920    -2.1500 H
81 H81     5.3535    -1.6539    -0.4053 H
82 C82     3.0081    -4.6017    -1.2842 C
83 H83     3.9772    -4.7463    -1.7733 H
84 H84     3.0934    -5.0180    -0.2700 H
85 H85     2.2770    -5.2155    -1.8230 H
86 C86    -4.9670    -2.5635    -1.3195 C
87 H87    -5.4172    -2.0342    -2.1692 H
88 H88    -5.2673    -3.6131    -1.3929 H
89 H89    -5.4247    -2.1555    -0.4081 H
90 C90    -2.6982    -4.8855    -1.2467 C
91 H91    -3.7561    -5.1610    -1.2927 H
92 H92    -2.1921    -5.3790    -2.0864 H
93 H93    -2.2887    -5.3199    -0.3248 H
@<TRIPOS>BOND
1 1 7 Ar
2 1 9 Ar
3 1 60 1
4 2 12 Ar
5 2 14 Ar
6 2 61 1
7 3 17 Ar
8 3 19 Ar
9 3 59 1
10 4 5 Ar
11 4 8 Ar
12 4 22 Ar
13 5 6 Ar
14 5 78 1
15 6 7 Ar
16 6 82 1
17 7 8 Ar
18 8 24 1
19 9 10 Ar
20 9 13 1
21 10 11 2
22 10 90 1
23 11 12 Ar
24 11 86 1
25 12 13 Ar
26 13 24 1
27 14 15 Ar
28 14 18 Ar
29 15 16 2
30 15 62 1
31 16 17 Ar
32 16 66 1
33 17 18 1
34 18 24 1
35 19 20 Ar
36 19 23 Ar
37 20 21 Ar
38 20 70 1
39 21 22 Ar
40 21 74 1
41 22 23 Ar
42 23 24 1
43 24 25 1
44 25 26 1
45 25 37 1
46 25 48 1
47 26 27 Ar
48 26 28 Ar
49 27 29 Ar
50 27 30 1
51 28 31 Ar
52 28 32 1
53 29 33 Ar
54 29 34 1
55 31 33 Ar
56 31 35 1
57 33 36 1
58 37 38 Ar
59 37 39 Ar
60 38 40 Ar
61 38 41 1
62 39 42 Ar
63 39 43 1
64 40 44 Ar
65 40 45 1
66 42 44 Ar
67 42 46 1
68 44 47 1
69 48 49 Ar
70 48 50 Ar
71 49 51 Ar
72 49 52 1
73 50 53 Ar
74 50 54 1
75 51 55 Ar
76 51 56 1
77 53 55 Ar
78 53 57 1
79 55 58 1
80 62 63 1
81 62 64 1
82 62 65 1
83 66 67 1
84 66 68 1
85 66 69 1
86 70 71 1
87 70 72 1
88 70 73 1
89 74 75 1
90 74 76 1
91 74 77 1
92 78 79 1
93 78 80 1
94 78 81 1
95 82 83 1
96 82 84 1
97 82 85 1
98 86 87 1
99 86 88 1
100 86 89 1
101 90 91 1
102 90 92 1
103 90 93 1
