# 150b_C8H17_TD
# Created by GaussView 6.0.16
#

#
#

@<TRIPOS>MOLECULE
Molecule Name
93 100
SMALL
NO_CHARGES


@<TRIPOS>ATOM
1 C1     1.4071    -2.0481     0.0805 C
2 C2    -1.3578     2.0263     0.0717 C
3 C3    -5.3202    -0.8422    -0.2065 C
4 C4    -1.6844    -3.8883    -0.2554 C
5 C5    -0.8588    -4.9487     0.1715 C
6 C6     0.4422    -4.4565     0.3123 C
7 C7     0.4390    -3.0773    -0.0166 C
8 N8    -0.8618    -2.7824    -0.3781 N
9 C9     1.0660    -0.6869     0.0621 C
10 C10     1.9341     0.4529     0.0397 C
11 C11     1.1693     1.5941     0.0361 C
12 C12    -0.2134     1.2161     0.0566 C
13 N13    -0.2290    -0.1644     0.0478 N
14 C14    -2.7055     1.5816     0.0308 C
15 C15    -3.8612     2.4684    -0.0127 C
16 C16    -4.9653     1.6762    -0.0833 C
17 C17    -4.4984     0.3007    -0.0889 C
18 N18    -3.1169     0.2831    -0.0136 N
19 C19    -4.7904    -2.1487    -0.3261 C
20 C20    -5.3414    -3.4648    -0.3472 C
21 C21    -4.2848    -4.3717    -0.3525 C
22 C22    -3.0742    -3.6276    -0.3404 C
23 N23    -3.4361    -2.3092    -0.3557 N
24 C24     2.8355    -2.4292     0.2253 C
25 C25     3.3203    -3.1031     1.3518 C
26 C26     4.6424    -3.4903     1.4636 C
27 C27     5.1168    -2.5404    -0.6591 C
28 C28     3.7836    -2.1641    -0.7651 C
29 H29    -1.2001    -5.9425     0.4270 H
30 H30     1.2913    -5.0051     0.6924 H
31 H31    -1.0676    -2.0319    -1.0256 H
32 H32     3.0126     0.4012     0.0103 H
33 H33     1.5331     2.6109     0.0136 H
34 H34    -1.0562    -0.6515     0.3649 H
35 H35    -3.8323     3.5490    -0.0096 H
36 H36    -5.9958     1.9960    -0.1536 H
37 H37    -6.3953    -3.7048    -0.3454 H
38 H38    -4.3563    -5.4505    -0.3736 H
39 H39    -2.8590    -1.4749    -0.2045 H
40 F40     3.4126    -1.5169    -1.8851 F
41 F41     5.9460    -2.2186    -1.6798 F
42 F42     2.4876    -3.3978     2.3674 F
43 F43     5.0564    -4.1306     2.5833 F
44 C44     5.6021    -3.2262     0.4668 C
45 N45     6.8848    -3.6919     0.6387 N
46 H46     7.0517    -4.0077     1.5858 H
47 C47     8.0676    -3.1346    -0.0220 C
48 H48     8.9031    -3.7803     0.2679 H
49 H49     7.9494    -3.2329    -1.1029 H
50 C50     8.3753    -1.6806     0.3500 C
51 H51     7.5286    -1.0480     0.0557 H
52 H52     8.4648    -1.6029     1.4425 H
53 C53     9.6542    -1.1666    -0.3165 C
54 H54     9.5524    -1.2471    -1.4082 H
55 H55    10.4975    -1.8157    -0.0384 H
56 C56     9.9867     0.2813     0.0565 C
57 H57     9.1448     0.9306    -0.2241 H
58 H58    10.0822     0.3602     1.1492 H
59 C59    11.2684     0.7992    -0.6028 C
60 H60    12.1074     0.1421    -0.3303 H
61 H61    11.1690     0.7290    -1.6958 H
62 C62    11.6109     2.2414    -0.2174 C
63 H63    11.7134     2.3107     0.8757 H
64 H64    10.7718     2.8998    -0.4866 H
65 C65    12.8912     2.7611    -0.8788 C
66 H66    13.7285     2.0989    -0.6169 H
67 H67    12.7842     2.7005    -1.9710 H
68 C68    13.2333     4.1974    -0.4787 C
69 H69    13.3870     4.2815     0.6045 H
70 H70    14.1489     4.5443    -0.9720 H
71 H71    12.4261     4.8887    -0.7519 H
72 C72    -6.7951    -0.6936    -0.2002 C
73 C73    -7.5804    -1.1608    -1.2610 C
74 C74    -7.4780    -0.1059     0.8716 C
75 C75    -8.9665    -1.0497    -1.2637 C
76 C76    -8.8625     0.0258     0.8850 C
77 C77    -9.6109    -0.4506    -0.1863 C
78 C78    -1.1235     3.4977     0.1213 C
79 C79    -0.5446     4.1890    -0.9465 C
80 C80    -1.4800     4.2551     1.2410 C
81 C81    -0.3234     5.5620    -0.9075 C
82 C82    -1.2816     5.6306     1.2988 C
83 C83    -0.6971     6.2861     0.2198 C
84 F84    -0.1777     3.5285    -2.0551 F
85 F85     0.2339     6.1906    -1.9508 F
86 F86    -2.0373     3.6571     2.3037 F
87 F87    -1.6374     6.3242     2.3878 F
88 F88    -0.4940     7.6066     0.2670 F
89 F89    -7.0006    -1.7305    -2.3286 F
90 F90    -9.6817    -1.5037    -2.3009 F
91 F91   -10.9423    -0.3343    -0.1800 F
92 F92    -9.4796     0.5908     1.9305 F
93 F93    -6.8026     0.3442     1.9383 F
@<TRIPOS>BOND
1 1 7 Ar
2 1 9 Ar
3 1 24 1
4 2 12 Ar
5 2 14 Ar
6 2 78 1
7 3 17 Ar
8 3 19 Ar
9 3 72 1
10 4 5 Ar
11 4 8 1
12 4 22 Ar
13 5 6 Ar
14 5 29 1
15 6 7 Ar
16 6 30 1
17 7 8 1
18 8 31 1
19 9 10 Ar
20 9 13 1
21 10 11 2
22 10 32 1
23 11 12 Ar
24 11 33 1
25 12 13 Ar
26 13 34 1
27 14 15 1
28 14 18 Ar
29 15 16 2
30 15 35 1
31 16 17 1
32 16 36 1
33 17 18 1
34 19 20 Ar
35 19 23 Ar
36 20 21 Ar
37 20 37 1
38 21 22 Ar
39 21 38 1
40 22 23 Ar
41 23 39 1
42 24 25 Ar
43 24 28 Ar
44 25 26 2
45 25 42 1
46 26 43 1
47 26 44 Ar
48 27 28 Ar
49 27 41 1
50 27 44 Ar
51 28 40 1
52 44 45 Ar
53 45 46 1
54 45 47 1
55 47 48 1
56 47 49 1
57 47 50 1
58 50 51 1
59 50 52 1
60 50 53 1
61 53 54 1
62 53 55 1
63 53 56 1
64 56 57 1
65 56 58 1
66 56 59 1
67 59 60 1
68 59 61 1
69 59 62 1
70 62 63 1
71 62 64 1
72 62 65 1
73 65 66 1
74 65 67 1
75 65 68 1
76 68 69 1
77 68 70 1
78 68 71 1
79 72 73 Ar
80 72 74 Ar
81 73 75 Ar
82 73 89 1
83 74 76 Ar
84 74 93 1
85 75 77 Ar
86 75 90 1
87 76 77 Ar
88 76 92 1
89 77 91 1
90 78 79 Ar
91 78 80 Ar
92 79 81 Ar
93 79 84 1
94 80 82 Ar
95 80 86 1
96 81 83 Ar
97 81 85 1
98 82 83 Ar
99 82 87 1
100 83 88 1
