# N4_Br_OPT
# Created by GaussView 6.0.16
#

#
#

@<TRIPOS>MOLECULE
Molecule Name
67 74
SMALL
NO_CHARGES


@<TRIPOS>ATOM
1 C1    -3.3939    -1.7650    -0.0131 C
2 C2    -0.0055     1.7429    -0.2419 C
3 C3     3.4173    -1.7689    -0.1617 C
4 C4    -0.7159    -4.1314    -0.1042 C
5 C5    -1.7773    -5.0656     0.0484 C
6 C6    -2.9741    -4.3525     0.0615 C
7 C7    -2.6587    -2.9681    -0.0727 C
8 N8    -1.3030    -2.9011    -0.2061 N
9 C9    -2.7888    -0.4947    -0.0404 C
10 C10    -3.4913     0.7763    -0.0050 C
11 C11    -2.5419     1.7513    -0.0629 C
12 C12    -1.2510     1.0781    -0.1297 C
13 N13    -1.4265    -0.2711    -0.1064 N
14 C14     1.2552     1.1452    -0.3208 C
15 C15     2.5383     1.7503    -0.5285 C
16 C16     3.4943     0.7619    -0.5034 C
17 C17     2.8471    -0.4965    -0.2810 C
18 N18     1.4871    -0.2099    -0.2047 N
19 C19     2.6507    -2.9541    -0.0907 C
20 C20     2.9203    -4.2604     0.3851 C
21 C21     1.7247    -4.9872     0.3773 C
22 C22     0.7020    -4.1440    -0.1066 C
23 N23     1.3076    -2.9355    -0.4028 N
24 H24    -1.6605    -6.1377     0.1282 H
25 H25    -4.5646     0.9024     0.0462 H
26 H26    -2.6960     2.8217    -0.0586 H
27 H27     2.7009     2.8051    -0.6981 H
28 H28     4.5578     0.8818    -0.6565 H
29 H29     3.8745    -4.5985     0.7651 H
30 H30     1.5792    -5.9882     0.7596 H
31 C31    -0.0223     3.2352    -0.2856 C
32 C32    -0.2993     3.9227    -1.4761 C
33 C33     0.2454     3.9900     0.8660 C
34 C34    -0.3144     5.3227    -1.5258 C
35 C35     0.2470     5.3907     0.8391 C
36 C36    -0.0357     6.0574    -0.3630 C
37 C37     4.8952    -1.8759    -0.0412 C
38 C38     5.6741    -2.3439    -1.1114 C
39 C39     5.5511    -1.5231     1.1499 C
40 C40     7.0655    -2.4654    -1.0057 C
41 C41     6.9433    -1.6222     1.2726 C
42 C42     7.7003    -2.0999     0.1915 C
43 C43    -4.8734    -1.8691     0.1215 C
44 C44    -5.6783    -2.1507    -0.9924 C
45 C45    -5.4982    -1.7164     1.3686 C
46 C46    -7.0671    -2.2911    -0.8739 C
47 C47    -6.8866    -1.8415     1.5091 C
48 C48    -7.6710    -2.1362     0.3833 C
49 H49    -0.8770    -1.9678    -0.1838 H
50 H50     0.7932    -0.8027     0.2299 H
51 H51    -3.9689    -4.7620     0.1693 H
52 H52     0.9328    -2.2915    -1.0879 H
53 Br53     9.5811    -2.2543     0.3500 Br
54 Br54     8.0806    -3.1083    -2.4686 Br
55 Br55     4.7920    -2.7895    -2.7326 Br
56 Br56     7.7965    -1.1199     2.8863 Br
57 Br57     4.5002    -0.9260     2.6144 Br
58 Br58     0.6013     3.0564     2.4799 Br
59 Br59     0.6281     6.3728     2.4118 Br
60 Br60    -0.0395     7.9507    -0.4171 Br
61 Br61    -0.7045     6.2134    -3.1496 Br
62 Br62    -0.6551     2.8980    -3.0328 Br
63 Br63    -4.4068    -1.3429     2.8752 Br
64 Br64    -7.6955    -1.6223     3.2070 Br
65 Br65    -9.5475    -2.3281     0.5613 Br
66 Br66    -8.1178    -2.6851    -2.3983 Br
67 Br67    -4.8329    -2.3219    -2.6835 Br
@<TRIPOS>BOND
1 1 7 Ar
2 1 9 Ar
3 1 43 1
4 2 12 Ar
5 2 14 Ar
6 2 31 1
7 3 17 Ar
8 3 19 Ar
9 3 37 1
10 4 5 Ar
11 4 8 Ar
12 4 22 Ar
13 5 6 Ar
14 5 24 1
15 6 7 Ar
16 6 51 1
17 7 8 Ar
18 8 49 1
19 9 10 1
20 9 13 1
21 10 11 2
22 10 25 1
23 11 12 1
24 11 26 1
25 12 13 Ar
26 14 15 Ar
27 14 18 Ar
28 15 16 2
29 15 27 1
30 16 17 Ar
31 16 28 1
32 17 18 1
33 18 50 1
34 19 20 Ar
35 19 23 Ar
36 20 21 Ar
37 20 29 1
38 21 22 Ar
39 21 30 1
40 22 23 1
41 23 52 1
42 31 32 Ar
43 31 33 Ar
44 32 34 Ar
45 32 62 1
46 33 35 Ar
47 33 58 1
48 34 36 Ar
49 34 61 1
50 35 36 Ar
51 35 59 1
52 36 60 1
53 37 38 Ar
54 37 39 Ar
55 38 40 Ar
56 38 55 1
57 39 41 Ar
58 39 57 1
59 40 42 Ar
60 40 54 1
61 41 42 Ar
62 41 56 1
63 42 53 1
64 43 44 Ar
65 43 45 Ar
66 44 46 Ar
67 44 67 1
68 45 47 Ar
69 45 63 1
70 46 48 Ar
71 46 66 1
72 47 48 Ar
73 47 64 1
74 48 65 1
