# N4_Br_CN_OPT
# Created by GaussView 6.0.16
#

#
#

@<TRIPOS>MOLECULE
Molecule Name
72 79
SMALL
NO_CHARGES


@<TRIPOS>ATOM
1 C1    -3.4122    -0.9019    -0.1235 C
2 C2    -0.0204     2.5938    -0.4764 C
3 C3     3.3953    -0.9276    -0.2335 C
4 C4    -0.7441    -3.2736    -0.1693 C
5 C5    -1.8053    -4.1994     0.0304 C
6 C6    -2.9998    -3.4844     0.0207 C
7 C7    -2.6824    -2.1078    -0.1765 C
8 N8    -1.3285    -2.0490    -0.3284 N
9 C9    -2.8093     0.3658    -0.1863 C
10 C10    -3.5100     1.6334    -0.1168 C
11 C11    -2.5647     2.6098    -0.2101 C
12 C12    -1.2768     1.9365    -0.3475 C
13 N13    -1.4497     0.5908    -0.3148 N
14 C14     1.2448     1.9819    -0.5287 C
15 C15     2.5269     2.5611    -0.8129 C
16 C16     3.4774     1.5708    -0.7385 C
17 C17     2.8268     0.3371    -0.4249 C
18 N18     1.4700     0.6392    -0.3345 N
19 C19     2.6223    -2.1043    -0.1271 C
20 C20     2.8754    -3.3895     0.4127 C
21 C21     1.6794    -4.1126     0.4039 C
22 C22     0.6734    -3.2878    -0.1455 C
23 N23     1.2894    -2.0965    -0.4792 N
24 H24    -1.6886    -5.2663     0.1620 H
25 H25    -4.5793     1.7584    -0.0120 H
26 H26    -2.7293     3.6782    -0.1765 H
27 H27     2.6992     3.5957    -1.0716 H
28 H28     4.5374     1.6717    -0.9242 H
29 H29     3.8189    -3.7119     0.8305 H
30 H30     1.5192    -5.0956     0.8247 H
31 C31    -0.0186     4.0718    -0.5492 C
32 C32    -0.5924     4.7558    -1.6420 C
33 C33     0.5797     4.8427     0.4721 C
34 C34    -0.5786     6.1642    -1.7140 C
35 C35     0.6141     6.2504     0.4048 C
36 C36     0.0303     6.9168    -0.6904 C
37 C37     4.8695    -1.0288    -0.0716 C
38 C38     5.6630    -1.6339    -1.0602 C
39 C39     5.5055    -0.5379     1.0824 C
40 C40     7.0487    -1.7664    -0.9053 C
41 C41     6.8933    -0.6435     1.2473 C
42 C42     7.6640    -1.2660     0.2527 C
43 C43    -4.8861    -1.0006     0.0692 C
44 C44    -5.7435    -1.1746    -1.0251 C
45 C45    -5.4454    -0.9504     1.3535 C
46 C46    -7.1273    -1.3072    -0.8520 C
47 C47    -6.8267    -1.0730     1.5513 C
48 C48    -7.6680    -1.2564     0.4425 C
49 H49    -0.8979    -1.1187    -0.3529 H
50 H50     0.7752     0.0661     0.1250 H
51 H51    -3.9942    -3.8857     0.1584 H
52 H52     0.9334    -1.4774    -1.1966 H
53 C53     0.0590     8.3424    -0.7644 C
54 C54     1.2302     7.0042     1.4511 C
55 C55     1.1334     4.1861     1.6182 C
56 C56    -1.1518     4.0121    -2.7295 C
57 C57    -1.1578     6.8325    -2.8367 C
58 N58     0.0830     9.5021    -0.8229 N
59 N59     1.7342     7.6157     2.3000 N
60 N60     1.5765     3.6675     2.5582 N
61 N61    -1.5902     3.4351    -3.6372 N
62 N62    -1.6277     7.3795    -3.7469 N
63 Br63    -7.5461    -0.9945     3.2996 Br
64 Br64    -4.2711    -0.7144     2.8252 Br
65 Br65    -9.5366    -1.4372     0.6933 Br
66 Br66    -8.2517    -1.5555    -2.3529 Br
67 Br67    -4.9706    -1.2174    -2.7569 Br
68 Br68     4.8190    -2.2410    -2.6499 Br
69 Br69     8.0823    -2.6060    -2.2497 Br
70 Br70     9.5371    -1.4303     0.4724 Br
71 Br71     7.7218     0.0420     2.8043 Br
72 Br72     4.4432     0.2612     2.4386 Br
@<TRIPOS>BOND
1 1 7 Ar
2 1 9 Ar
3 1 43 1
4 2 12 Ar
5 2 14 Ar
6 2 31 1
7 3 17 Ar
8 3 19 Ar
9 3 37 1
10 4 5 Ar
11 4 8 Ar
12 4 22 Ar
13 5 6 Ar
14 5 24 1
15 6 7 Ar
16 6 51 1
17 7 8 Ar
18 8 49 1
19 9 10 1
20 9 13 1
21 10 11 2
22 10 25 1
23 11 12 1
24 11 26 1
25 12 13 Ar
26 14 15 Ar
27 14 18 Ar
28 15 16 2
29 15 27 1
30 16 17 Ar
31 16 28 1
32 17 18 1
33 18 50 1
34 19 20 Ar
35 19 23 Ar
36 20 21 Ar
37 20 29 1
38 21 22 Ar
39 21 30 1
40 22 23 1
41 23 52 1
42 31 32 Ar
43 31 33 Ar
44 32 34 Ar
45 32 56 Ar
46 33 35 Ar
47 33 55 Ar
48 34 36 Ar
49 34 57 Ar
50 35 36 Ar
51 35 54 Ar
52 36 53 Ar
53 37 38 Ar
54 37 39 Ar
55 38 40 Ar
56 38 68 1
57 39 41 Ar
58 39 72 1
59 40 42 Ar
60 40 69 1
61 41 42 Ar
62 41 71 1
63 42 70 1
64 43 44 Ar
65 43 45 Ar
66 44 46 Ar
67 44 67 1
68 45 47 Ar
69 45 64 1
70 46 48 Ar
71 46 66 1
72 47 48 Ar
73 47 63 1
74 48 65 1
75 53 58 3
76 54 59 3
77 55 60 3
78 56 61 3
79 57 62 3
