# N4_Br_OH_OPT
# Created by GaussView 6.0.16
#

#
#

@<TRIPOS>MOLECULE
Molecule Name
72 79
SMALL
NO_CHARGES


@<TRIPOS>ATOM
1 C1    -3.3843    -0.7534    -0.0540 C
2 C2    -0.0259     2.7642    -0.5924 C
3 C3     3.4162    -0.7125    -0.1206 C
4 C4    -0.6961    -3.1054     0.0586 C
5 C5    -1.7538    -4.0311     0.2704 C
6 C6    -2.9551    -3.3256     0.2178 C
7 C7    -2.6459    -1.9550    -0.0215 C
8 N8    -1.2890    -1.8905    -0.1474 N
9 C9    -2.7867     0.5144    -0.1857 C
10 C10    -3.5011     1.7776    -0.2467 C
11 C11    -2.5613     2.7515    -0.3958 C
12 C12    -1.2633     2.0891    -0.4233 C
13 N13    -1.4274     0.7431    -0.2821 N
14 C14     1.2365     2.1612    -0.5826 C
15 C15     2.5202     2.7454    -0.8436 C
16 C16     3.4807     1.7722    -0.7079 C
17 C17     2.8372     0.5392    -0.3617 C
18 N18     1.4772     0.8255    -0.3210 N
19 C19     2.6573    -1.8947     0.0426 C
20 C20     2.9293    -3.1524     0.6327 C
21 C21     1.7412    -3.8926     0.6586 C
22 C22     0.7223    -3.1069     0.0811 C
23 N23     1.3237    -1.9209    -0.3031 N
24 H24    -1.6325    -5.0930     0.4351 H
25 H25    -4.5753     1.8971    -0.1943 H
26 H26    -2.7201     3.8175    -0.4776 H
27 H27     2.6730     3.7777    -1.1223 H
28 H28     4.5451     1.8793    -0.8646 H
29 H29     3.8792    -3.4450     1.0586 H
30 H30     1.5964    -4.8588     1.1225 H
31 C31    -0.0562     4.2405    -0.8114 C
32 C32    -0.5466     4.7761    -2.0136 C
33 C33     0.3859     5.1225     0.1889 C
34 C34    -0.5941     6.1598    -2.2104 C
35 C35     0.3457     6.5055    -0.0129 C
36 C36    -0.1317     7.0167    -1.2163 C
37 C37     4.8924    -0.8030     0.0208 C
38 C38     5.6773    -1.4146    -0.9715 C
39 C39     5.5456    -0.2989     1.1591 C
40 C40     7.0668    -1.5317    -0.8385 C
41 C41     6.9365    -0.3883     1.3030 C
42 C42     7.6972    -1.0117     0.3022 C
43 C43    -4.8627    -0.8469     0.0989 C
44 C44    -5.6808    -1.1726    -0.9927 C
45 C45    -5.4751    -0.6270     1.3422 C
46 C46    -7.0714    -1.2789    -0.8588 C
47 C47    -6.8645    -0.7189     1.4980 C
48 C48    -7.6633    -1.0469     0.3920 C
49 H49    -0.8678    -0.9559    -0.1947 H
50 H50     0.7761     0.2698     0.1496 H
51 H51    -3.9487    -3.7319     0.3476 H
52 H52     0.9541    -1.3333    -1.0392 H
53 O53    -0.2324     8.3947    -1.4002 O
54 H54     0.6281     8.7306    -1.7100 H
55 O55     0.7936     7.3161     1.0029 O
56 H56     0.4349     8.2073     0.8466 H
57 O57     0.8440     4.6257     1.3742 O
58 H58     1.0408     5.3878     1.9470 H
59 O59    -0.9774     3.9377    -2.9995 O
60 H60    -1.3300     4.4922    -3.7173 H
61 O61    -1.0833     6.6217    -3.4066 O
62 H62    -1.2013     7.5840    -3.3178 H
63 Br63    -7.6555    -0.4090     3.1907 Br
64 Br64    -9.5440    -1.1767     0.5873 Br
65 Br65    -8.1409    -1.7271    -2.3558 Br
66 Br66    -4.8486    -1.4531    -2.6753 Br
67 Br67    -4.3644    -0.2055     2.8214 Br
68 Br68     4.4935     0.4897     2.5286 Br
69 Br69     7.7839     0.3189     2.8421 Br
70 Br70     9.5771    -1.1527     0.4916 Br
71 Br71     8.0882    -2.3760    -2.1913 Br
72 Br72     4.8104    -2.0598    -2.5335 Br
@<TRIPOS>BOND
1 1 7 Ar
2 1 9 Ar
3 1 43 1
4 2 12 Ar
5 2 14 Ar
6 2 31 1
7 3 17 Ar
8 3 19 Ar
9 3 37 1
10 4 5 Ar
11 4 8 Ar
12 4 22 Ar
13 5 6 Ar
14 5 24 1
15 6 7 Ar
16 6 51 1
17 7 8 Ar
18 8 49 1
19 9 10 1
20 9 13 Ar
21 10 11 2
22 10 25 1
23 11 12 1
24 11 26 1
25 12 13 Ar
26 14 15 Ar
27 14 18 1
28 15 16 2
29 15 27 1
30 16 17 Ar
31 16 28 1
32 17 18 1
33 18 50 1
34 19 20 Ar
35 19 23 Ar
36 20 21 Ar
37 20 29 1
38 21 22 Ar
39 21 30 1
40 22 23 1
41 23 52 1
42 31 32 Ar
43 31 33 Ar
44 32 34 Ar
45 32 59 1
46 33 35 Ar
47 33 57 1
48 34 36 Ar
49 34 61 1
50 35 36 Ar
51 35 55 1
52 36 53 1
53 37 38 Ar
54 37 39 Ar
55 38 40 Ar
56 38 72 1
57 39 41 Ar
58 39 68 1
59 40 42 Ar
60 40 71 1
61 41 42 Ar
62 41 69 1
63 42 70 1
64 43 44 Ar
65 43 45 Ar
66 44 46 Ar
67 44 66 1
68 45 47 Ar
69 45 67 1
70 46 48 Ar
71 46 65 1
72 47 48 Ar
73 47 63 1
74 48 64 1
75 53 54 1
76 55 56 1
77 57 58 1
78 59 60 1
79 61 62 1
