# N4_Me_CN_OPT
# Created by GaussView 6.0.16
#

#
#

@<TRIPOS>MOLECULE
Molecule Name
102 109
SMALL
NO_CHARGES


@<TRIPOS>ATOM
1 C1    -3.3578    -1.7294    -0.0037 C
2 C2    -0.0291     1.8703    -0.0804 C
3 C3     3.4826    -1.5767    -0.2856 C
4 C4    -0.6242    -4.0138    -0.3639 C
5 C5    -1.6589    -4.9798    -0.2552 C
6 C6    -2.8718    -4.2948    -0.1736 C
7 C7    -2.5896    -2.8998    -0.2143 C
8 N8    -1.2367    -2.7937    -0.3705 N
9 C9    -2.7663    -0.4570     0.0753 C
10 C10    -3.4790     0.7762     0.3385 C
11 C11    -2.5564     1.7790     0.3200 C
12 C12    -1.2668     1.1603     0.0296 C
13 N13    -1.4115    -0.1803    -0.0902 N
14 C14     1.2507     1.2968    -0.2231 C
15 C15     2.5078     1.9262    -0.5126 C
16 C16     3.4817     0.9560    -0.5532 C
17 C17     2.8733    -0.3165    -0.3196 C
18 N18     1.5107    -0.0493    -0.1475 N
19 C19     2.7242    -2.7712    -0.2858 C
20 C20     3.0182    -4.0990     0.1071 C
21 C21     1.8355    -4.8464     0.0586 C
22 C22     0.7980    -3.9935    -0.3722 C
23 N23     1.3771    -2.7613    -0.5937 N
24 H24    -1.5160    -6.0517    -0.2486 H
25 H25    -4.5416     0.8566     0.5200 H
26 H26    -2.7367     2.8283     0.5089 H
27 H27     2.6458     2.9817    -0.6988 H
28 H28     4.5312     1.0925    -0.7713 H
29 H29     3.9827    -4.4368     0.4590 H
30 H30     1.7073    -5.8718     0.3771 H
31 C31    -0.0904     3.3408    -0.0627 C
32 C32    -0.8306     4.0552    -1.0370 C
33 C33     0.5791     4.0978     0.9292 C
34 C34    -0.9288     5.4598    -1.0043 C
35 C35     0.5009     5.5046     0.9609 C
36 C36    -0.2631     6.1941    -0.0020 C
37 C37     4.9686    -1.6633    -0.1758 C
38 C38     5.7279    -2.1445    -1.2627 C
39 C39     5.5897    -1.2699     1.0280 C
40 C40     7.1223    -2.2700    -1.1236 C
41 C41     6.9897    -1.3484     1.1361 C
42 C42     7.7463    -1.8921     0.0816 C
43 C43    -4.8360    -1.8820     0.1727 C
44 C44    -5.6983    -1.6137    -0.9088 C
45 C45    -5.3401    -2.3198     1.4124 C
46 C46    -7.0869    -1.7594    -0.7311 C
47 C47    -7.5987    -2.1778     0.5119 C
48 H48    -0.8284    -1.8546    -0.3028 H
49 H49     0.8358    -0.6785     0.2651 H
50 H50    -3.8575    -4.7269    -0.0736 H
51 H51     0.9737    -2.0679    -1.2094 H
52 C52    -6.7269    -2.4970     1.5692 C
53 C53    -7.2771    -3.0285     2.8753 C
54 C54    -9.0960    -2.2814     0.7085 C
55 C55    -8.0409    -1.4746    -1.8711 C
56 C56    -5.1442    -1.1692    -2.2453 C
57 C57    -4.4073    -2.5735     2.5772 C
58 C58     4.7672    -0.8063     2.2116 C
59 C59     7.6793    -0.8532     2.3895 C
60 C60     9.2407    -2.0684     0.2417 C
61 C61     7.9686    -2.8048    -2.2591 C
62 C62     5.0567    -2.5007    -2.5722 C
63 H63     3.9957    -2.2509    -2.5638 H
64 H64     5.1394    -3.5710    -2.7972 H
65 H65     5.5085    -1.9589    -3.4110 H
66 H66     7.4141    -2.8733    -3.1953 H
67 H67     8.3488    -3.8115    -2.0384 H
68 H68     8.8422    -2.1698    -2.4436 H
69 H69     9.7950    -1.1689    -0.0626 H
70 H70     9.5134    -2.2793     1.2788 H
71 H71     9.6174    -2.8955    -0.3641 H
72 H72     7.0984    -0.0731     2.8864 H
73 H73     7.8366    -1.6564     3.1236 H
74 H74     8.6602    -0.4261     2.1648 H
75 H75     5.1649    -1.2062     3.1494 H
76 H76     4.7502     0.2872     2.3065 H
77 H77     3.7297    -1.1345     2.1329 H
78 H78    -5.5265    -0.1824    -2.5324 H
79 H79    -4.0565    -1.1022    -2.2342 H
80 H80    -5.4205    -1.8663    -3.0458 H
81 H81    -7.5303    -1.4221    -2.8333 H
82 H82    -8.5652    -0.5186    -1.7344 H
83 H83    -8.8100    -2.2499    -1.9539 H
84 H84    -9.6333    -1.5520     0.0975 H
85 H85    -9.4797    -3.2747     0.4342 H
86 H86    -9.3817    -2.1009     1.7477 H
87 H87    -8.1509    -3.6657     2.7136 H
88 H88    -6.5378    -3.6295     3.4093 H
89 H89    -7.5871    -2.2214     3.5544 H
90 H90    -4.7903    -2.1198     3.4976 H
91 H91    -3.4160    -2.1554     2.3953 H
92 H92    -4.2769    -3.6452     2.7770 H
93 C93    -0.3582     7.6173     0.0346 C
94 C94     1.1767     6.2372     1.9853 C
95 C95     1.3068     3.4296     1.9654 C
96 C96    -1.4411     3.3518    -2.1241 C
97 C97    -1.6843     6.1489    -2.0031 C
98 N98     1.8972     2.9145     2.8231 N
99 N99     1.7302     6.8336     2.8141 N
100 N100    -0.4349     8.7762     0.0642 N
101 N101    -2.3010     6.7106    -2.8112 N
102 N102    -1.9181     2.8167    -3.0382 N
@<TRIPOS>BOND
1 1 7 Ar
2 1 9 Ar
3 1 43 1
4 2 12 Ar
5 2 14 Ar
6 2 31 1
7 3 17 Ar
8 3 19 Ar
9 3 37 1
10 4 5 Ar
11 4 8 Ar
12 4 22 Ar
13 5 6 Ar
14 5 24 1
15 6 7 Ar
16 6 50 1
17 7 8 Ar
18 8 48 1
19 9 10 1
20 9 13 1
21 10 11 2
22 10 25 1
23 11 12 1
24 11 26 1
25 12 13 Ar
26 14 15 Ar
27 14 18 Ar
28 15 16 2
29 15 27 1
30 16 17 Ar
31 16 28 1
32 17 18 1
33 18 49 1
34 19 20 Ar
35 19 23 Ar
36 20 21 Ar
37 20 29 1
38 21 22 Ar
39 21 30 1
40 22 23 Ar
41 23 51 1
42 31 32 Ar
43 31 33 Ar
44 32 34 Ar
45 32 96 Ar
46 33 35 Ar
47 33 95 Ar
48 34 36 Ar
49 34 97 Ar
50 35 36 Ar
51 35 94 Ar
52 36 93 Ar
53 37 38 Ar
54 37 39 Ar
55 38 40 Ar
56 38 62 1
57 39 41 Ar
58 39 58 1
59 40 42 Ar
60 40 61 1
61 41 42 Ar
62 41 59 1
63 42 60 1
64 43 44 Ar
65 43 45 Ar
66 44 46 Ar
67 44 56 1
68 45 52 Ar
69 45 57 1
70 46 47 Ar
71 46 55 1
72 47 52 Ar
73 47 54 1
74 52 53 1
75 53 87 1
76 53 88 1
77 53 89 1
78 54 84 1
79 54 85 1
80 54 86 1
81 55 81 1
82 55 82 1
83 55 83 1
84 56 78 1
85 56 79 1
86 56 80 1
87 57 90 1
88 57 91 1
89 57 92 1
90 58 75 1
91 58 76 1
92 58 77 1
93 59 72 1
94 59 73 1
95 59 74 1
96 60 69 1
97 60 70 1
98 60 71 1
99 61 66 1
100 61 67 1
101 61 68 1
102 62 63 1
103 62 64 1
104 62 65 1
105 93 100 3
106 94 99 3
107 95 98 3
108 96 102 3
109 97 101 3
