# N4_Me_OMe_OPT
# Created by GaussView 6.0.16
#

#
#

@<TRIPOS>MOLECULE
Molecule Name
117 124
SMALL
NO_CHARGES


@<TRIPOS>ATOM
1 C1    -3.3388    -1.9946    -0.0573 C
2 C2    -0.0205     1.6159     0.0617 C
3 C3     3.5072    -1.8157    -0.0936 C
4 C4    -0.5827    -4.2814    -0.2475 C
5 C5    -1.6243    -5.2474    -0.2245 C
6 C6    -2.8407    -4.5638    -0.1898 C
7 C7    -2.5592    -3.1672    -0.1808 C
8 N8    -1.1978    -3.0609    -0.2438 N
9 C9    -2.7521    -0.7162     0.0287 C
10 C10    -3.4848     0.5329     0.1177 C
11 C11    -2.5585     1.5340     0.1532 C
12 C12    -1.2473     0.9014     0.0872 C
13 N13    -1.3895    -0.4517     0.0226 N
14 C14     1.2532     1.0484    -0.0138 C
15 C15     2.5282     1.6966    -0.1444 C
16 C16     3.5084     0.7331    -0.1841 C
17 C17     2.8926    -0.5591    -0.0845 C
18 N18     1.5201    -0.3078    -0.0047 N
19 C19     2.7613    -3.0192    -0.1276 C
20 C20     3.0686    -4.3594     0.2097 C
21 C21     1.8883    -5.1138     0.1521 C
22 C22     0.8381    -4.2568    -0.2333 C
23 N23     1.4079    -3.0082    -0.4100 N
24 H24    -1.4831    -6.3196    -0.2466 H
25 H25    -4.5625     0.6220     0.1455 H
26 H26    -2.7359     2.5979     0.2303 H
27 H27     2.6613     2.7658    -0.2269 H
28 H28     4.5718     0.8856    -0.3040 H
29 H29     4.0408    -4.7063     0.5311 H
30 H30     1.7750    -6.1523     0.4329 H
31 C31    -0.0809     3.1092     0.0761 C
32 C32    -0.1423     3.8274    -1.1254 C
33 C33    -0.0845     3.8137     1.2882 C
34 C34    -0.1948     5.2283    -1.1207 C
35 C35    -0.1445     5.2173     1.3081 C
36 C36    -0.1931     5.9280     0.0964 C
37 C37     5.0015    -1.8966    -0.0339 C
38 C38     5.7420    -1.9507    -1.2311 C
39 C39     5.6498    -1.9344     1.2155 C
40 C40     7.1456    -2.0246    -1.1744 C
41 C41     7.0544    -2.0124     1.2644 C
42 C42     7.8011    -2.0162     0.0714 C
43 C43    -4.8275    -2.1491    -0.0017 C
44 C44    -5.5799    -2.0959    -1.1910 C
45 C45    -5.4519    -2.3921     1.2365 C
46 C46    -6.9753    -2.2701    -1.1342 C
47 C47    -7.6076    -2.4871     0.1047 C
48 H48    -0.7974    -2.1224    -0.1298 H
49 H49     0.8320    -0.9476     0.3664 H
50 H50    -3.8297    -4.9998    -0.1634 H
51 H51     1.0031    -2.3116    -1.0219 H
52 C52    -6.8450    -2.5822     1.2835 C
53 C53    -7.5194    -2.8957     2.6021 C
54 C54    -9.1154    -2.6115     0.1686 C
55 C55    -7.8020    -2.2348    -2.4020 C
56 C56    -4.8966    -1.8450    -2.5176 C
57 C57    -4.6357    -2.4433     2.5092 C
58 C58     4.8499    -1.8938     2.4990 C
59 C59     7.7594    -2.0817     2.6021 C
60 C60     9.3141    -2.0013     0.1266 C
61 C61     7.9497    -2.1066    -2.4544 C
62 C62     5.0420    -1.9141    -2.5716 C
63 H63     3.9791    -1.6955    -2.4641 H
64 H64     5.1271    -2.8733    -3.0991 H
65 H65     5.4709    -1.1483    -3.2279 H
66 H66     7.3659    -2.5354    -3.2716 H
67 H67     8.8393    -2.7309    -2.3338 H
68 H68     8.2923    -1.1169    -2.7895 H
69 H69     9.6800    -1.4945     1.0228 H
70 H70     9.7390    -3.0153     0.1318 H
71 H71     9.7426    -1.4781    -0.7320 H
72 H72     7.1153    -2.5027     3.3770 H
73 H73     8.6557    -2.7065     2.5565 H
74 H74     8.0746    -1.0883     2.9527 H
75 H75     4.9172    -2.8428     3.0469 H
76 H76     5.2110    -1.1086     3.1734 H
77 H77     3.7934    -1.7046     2.3075 H
78 H78    -5.3354    -0.9864    -3.0394 H
79 H79    -3.8333    -1.6413    -2.3896 H
80 H80    -4.9859    -2.7086    -3.1890 H
81 H81    -7.1895    -2.3738    -3.2943 H
82 H82    -8.3303    -1.2782    -2.5212 H
83 H83    -8.5628    -3.0222    -2.4073 H
84 H84    -9.6019    -2.0467    -0.6305 H
85 H85    -9.4489    -3.6551     0.0743 H
86 H86    -9.5124    -2.2326     1.1139 H
87 H87    -8.3726    -3.5667     2.4695 H
88 H88    -6.8345    -3.3836     3.2991 H
89 H89    -7.8943    -1.9904     3.1010 H
90 H90    -5.0966    -1.8470     3.3042 H
91 H91    -3.6272    -2.0591     2.3529 H
92 H92    -4.5383    -3.4686     2.8904 H
93 C93    -1.2260     6.6379     2.8775 C
94 H94    -2.1584     6.0910     2.6894 H
95 H95    -1.2370     7.5880     2.3357 H
96 H96    -1.1380     6.8343     3.9493 H
97 C97     1.1249     3.1379     3.1997 C
98 H98     1.3748     4.1571     3.5113 H
99 H99     1.9471     2.7184     2.6064 H
100 H100     0.9641     2.5139     4.0824 H
101 C101    -1.2989     3.1116    -3.0568 C
102 H102    -1.0959     2.5213    -3.9536 H
103 H103    -1.6167     4.1194    -3.3442 H
104 H104    -2.0888     2.6234    -2.4739 H
105 C105     1.0219     5.9927    -2.9834 C
106 H106     0.8590     6.6005    -3.8768 H
107 H107     1.3581     4.9925    -3.2751 H
108 H108     1.7806     6.4699    -2.3513 H
109 C109    -1.3143     7.9534    -0.4283 C
110 H110    -2.2431     7.5825     0.0239 H
111 H111    -1.3538     7.8120    -1.5107 H
112 H112    -1.1982     9.0148    -0.1959 H
113 O113    -0.2388     5.9314    -2.3044 O
114 O114    -0.1733     7.2974     0.1406 O
115 O115    -0.0893     5.8472     2.5235 O
116 O116    -0.1009     3.1070     2.4626 O
117 O117    -0.0724     3.1463    -2.3171 O
@<TRIPOS>BOND
1 1 7 Ar
2 1 9 Ar
3 1 43 1
4 2 12 Ar
5 2 14 Ar
6 2 31 1
7 3 17 Ar
8 3 19 Ar
9 3 37 1
10 4 5 Ar
11 4 8 Ar
12 4 22 Ar
13 5 6 Ar
14 5 24 1
15 6 7 Ar
16 6 50 1
17 7 8 Ar
18 8 48 1
19 9 10 1
20 9 13 1
21 10 11 2
22 10 25 1
23 11 12 1
24 11 26 1
25 12 13 Ar
26 14 15 Ar
27 14 18 1
28 15 16 2
29 15 27 1
30 16 17 Ar
31 16 28 1
32 17 18 1
33 18 49 1
34 19 20 Ar
35 19 23 1
36 20 21 Ar
37 20 29 1
38 21 22 Ar
39 21 30 1
40 22 23 1
41 23 51 1
42 31 32 Ar
43 31 33 Ar
44 32 34 Ar
45 32 117 1
46 33 35 Ar
47 33 116 1
48 34 36 Ar
49 34 113 1
50 35 36 Ar
51 35 115 1
52 36 114 1
53 37 38 Ar
54 37 39 Ar
55 38 40 Ar
56 38 62 1
57 39 41 Ar
58 39 58 1
59 40 42 Ar
60 40 61 1
61 41 42 Ar
62 41 59 1
63 42 60 1
64 43 44 Ar
65 43 45 Ar
66 44 46 Ar
67 44 56 1
68 45 52 Ar
69 45 57 1
70 46 47 Ar
71 46 55 1
72 47 52 Ar
73 47 54 1
74 52 53 1
75 53 87 1
76 53 88 1
77 53 89 1
78 54 84 1
79 54 85 1
80 54 86 1
81 55 81 1
82 55 82 1
83 55 83 1
84 56 78 1
85 56 79 1
86 56 80 1
87 57 90 1
88 57 91 1
89 57 92 1
90 58 75 1
91 58 76 1
92 58 77 1
93 59 72 1
94 59 73 1
95 59 74 1
96 60 69 1
97 60 70 1
98 60 71 1
99 61 66 1
100 61 67 1
101 61 68 1
102 62 63 1
103 62 64 1
104 62 65 1
105 93 94 1
106 93 95 1
107 93 96 1
108 93 115 1
109 97 98 1
110 97 99 1
111 97 100 1
112 97 116 1
113 101 102 1
114 101 103 1
115 101 104 1
116 101 117 1
117 105 106 1
118 105 107 1
119 105 108 1
120 105 113 1
121 109 110 1
122 109 111 1
123 109 112 1
124 109 114 1
