# PPh3_3Ph
# Created by GaussView 6.0.16
#

#
#

@<TRIPOS>MOLECULE
Molecule Name
129 145
SMALL
NO_CHARGES


@<TRIPOS>ATOM
1 C1     3.4505    -0.9218    -1.0225 C
2 C2    -0.0433     2.5200    -0.6993 C
3 C3    -3.2665    -1.1680    -1.0740 C
4 C4     0.8906    -3.3311    -1.5997 C
5 C5     2.0083    -4.1968    -1.7829 C
6 C6     3.1479    -3.4408    -1.5589 C
7 C7     2.7251    -2.1048    -1.2353 C
8 N8     1.3545    -2.0879    -1.2673 N
9 C9     2.8129     0.3331    -0.9051 C
10 C10     3.4648     1.6040    -0.7406 C
11 C11     2.4961     2.5715    -0.6750 C
12 C12     1.2221     1.9133    -0.7806 C
13 N13     1.4348     0.5492    -0.9126 N
14 C14    -1.2579     1.8175    -0.7580 C
15 C15    -2.5807     2.3859    -0.7499 C
16 C16    -3.4709     1.3496    -0.8337 C
17 C17    -2.7191     0.1236    -0.9034 C
18 N18    -1.3673     0.4415    -0.8646 N
19 C19    -2.4577    -2.2878    -1.3233 C
20 C20    -2.7707    -3.6539    -1.6454 C
21 C21    -1.5723    -4.3194    -1.8590 C
22 C22    -0.5254    -3.3768    -1.6432 C
23 N23    -1.0888    -2.1695    -1.3273 N
24 C24    -4.7403    -1.3369    -1.0280 C
25 C25    -5.4427    -1.9004    -2.1048 C
26 C26    -6.8245    -2.0570    -2.0528 C
27 C27    -7.5591    -1.6560    -0.9246 C
28 C28    -6.8522    -1.0964     0.1529 C
29 C29    -5.4706    -0.9408     0.1037 C
30 C30    -0.1019     4.0007    -0.5440 C
31 C31    -0.6557     4.5820     0.6063 C
32 C32    -0.7206     5.9651     0.7494 C
33 C33    -0.2357     6.8199    -0.2538 C
34 C34     0.3225     6.2356    -1.4025 C
35 C35     0.3897     4.8524    -1.5443 C
36 C36     4.9311    -1.0122    -0.9657 C
37 C37     5.7531    -0.2877    -1.8435 C
38 C38     7.1382    -0.4101    -1.7918 C
39 C39     7.7584    -1.2639    -0.8647 C
40 C40     6.9343    -1.9908     0.0102 C
41 C41     5.5493    -1.8683    -0.0400 C
42 H42    -3.7663    -4.0680    -1.7218 H
43 H43    -1.4432    -5.3585    -2.1326 H
44 H44     1.9627    -5.2410    -2.0632 H
45 H45     4.1746    -3.7691    -1.6411 H
46 H46    -4.5482     1.4153    -0.8813 H
47 H47    -2.8016     3.4428    -0.7141 H
48 H48     2.6393     3.6353    -0.5538 H
49 H49     4.5335     1.7486    -0.6795 H
50 Co50     0.0797    -0.7810    -0.8261 Co
51 P51    -0.0067    -1.3438     1.3181 P
52 C52     0.3702    -3.1200     1.5132 C
53 C53     1.6766    -3.5191     1.8373 C
54 C54    -0.5899    -4.0985     1.2199 C
55 C55     2.0033    -4.8714     1.9000 C
56 H56     2.4385    -2.7742     2.0363 H
57 C57    -0.2629    -5.4520     1.3044 C
58 H58    -1.5877    -3.8128     0.9093 H
59 C59     1.0313    -5.8419     1.6461 C
60 H60     3.0193    -5.1660     2.1462 H
61 H61    -1.0205    -6.1972     1.0804 H
62 H62     1.2868    -6.8963     1.7014 H
63 C63    -1.6188    -1.0316     2.1495 C
64 C64    -2.3148    -2.0008     2.8838 C
65 C65    -2.0906     0.2901     2.1514 C
66 C66    -3.4753    -1.6586     3.5808 C
67 H67    -1.9540    -3.0199     2.9320 H
68 C68    -3.2441     0.6299     2.8532 C
69 H69    -1.5554     1.0583     1.6069 H
70 C70    -3.9454    -0.3457     3.5658 C
71 H71    -4.0060    -2.4236     4.1402 H
72 H72    -3.5975     1.6564     2.8316 H
73 H73    -4.8485    -0.0826     4.1091 H
74 C74     1.1108    -0.5465     2.5434 C
75 C75     1.1422    -1.0846     3.8436 C
76 C76     1.8533     0.6016     2.2641 C
77 C77     1.9263    -0.4939     4.8293 C
78 H78     0.5542    -1.9648     4.0829 H
79 C79     2.6373     1.1945     3.2571 C
80 H80     1.8206     1.0431     1.2834 H
81 C81     2.6807     0.6474     4.5370 C
82 H82     1.9464    -0.9218     5.8276 H
83 H83     3.2123     2.0837     3.0159 H
84 H84     3.2930     1.1066     5.3080 H
85 H85     5.2977     0.3681    -2.5786 H
86 H86     7.3837    -2.6767     0.7222 H
87 H87     4.9304    -2.4424     0.6427 H
88 H88    -4.8986    -2.2051    -2.9932 H
89 H89    -7.3940    -0.7587     1.0315 H
90 H90    -4.9439    -0.5086     0.9477 H
91 H91    -7.3409    -2.5087    -2.8947 H
92 H92     7.7494     0.1759    -2.4716 H
93 H93     0.8254     4.4208    -2.4403 H
94 H94     0.7243     6.8725    -2.1850 H
95 H95    -1.1738     6.3896     1.6404 H
96 H96    -1.0410     3.9395     1.3926 H
97 C97    -0.3152     8.2928    -0.1081 C
98 C98    -0.6115     9.1088    -1.2126 C
99 C99    -0.0945     8.9084     1.1352 C
100 C100    -0.6856    10.4942    -1.0784 C
101 H101    -0.8098     8.6493    -2.1764 H
102 C102    -0.1685    10.2940     1.2696 C
103 H103     0.1596     8.2964     1.9958 H
104 C104    -0.4641    11.0931     0.1633 C
105 H105    -0.9244    11.1060    -1.9440 H
106 H106     0.0135    10.7512     2.2385 H
107 H107    -0.5212    12.1729     0.2680 H
108 C108    -9.0330    -1.8044    -0.8787 C
109 C109    -9.8107    -1.6189    -2.0343 C
110 C110    -9.6921    -2.1248     0.3203 C
111 C111   -11.1974    -1.7516    -1.9936 C
112 H112    -9.3247    -1.3435    -2.9656 H
113 C113   -11.0793    -2.2557     0.3619 C
114 H114    -9.1090    -2.2967     1.2203 H
115 C115   -11.8389    -2.0695    -0.7949 C
116 H116   -11.7786    -1.5954    -2.8984 H
117 H117   -11.5673    -2.5109     1.2987 H
118 H118   -12.9200    -2.1711    -0.7625 H
119 C119     9.2331    -1.4017    -0.8167 C
120 C120     9.9994    -1.3632    -1.9939 C
121 C121     9.9020    -1.5816     0.4059 C
122 C122    11.3858    -1.4993    -1.9503 C
123 H123     9.5003    -1.2517    -2.9520 H
124 C124    11.2884    -1.7192     0.4496 C
125 H125     9.3320    -1.5880     1.3303 H
126 C126    12.0370    -1.6792    -0.7284 C
127 H127    11.9572    -1.4746    -2.8743 H
128 H128    11.7859    -1.8496     1.4069 H
129 H129    13.1175    -1.7864    -0.6944 H
@<TRIPOS>BOND
1 1 7 Ar
2 1 9 Ar
3 1 36 1
4 2 12 Ar
5 2 14 Ar
6 2 30 1
7 3 17 Ar
8 3 19 Ar
9 3 24 1
10 4 5 Ar
11 4 8 Ar
12 4 22 Ar
13 5 6 2
14 5 44 1
15 6 7 Ar
16 6 45 1
17 7 8 Ar
18 8 50 1
19 9 10 Ar
20 9 13 1
21 10 11 2
22 10 49 1
23 11 12 Ar
24 11 48 1
25 12 13 1
26 13 50 1
27 14 15 Ar
28 14 18 1
29 15 16 2
30 15 47 1
31 16 17 Ar
32 16 46 1
33 17 18 1
34 18 50 1
35 19 20 Ar
36 19 23 Ar
37 20 21 Ar
38 20 42 1
39 21 22 Ar
40 21 43 1
41 22 23 Ar
42 23 50 1
43 24 25 Ar
44 24 29 Ar
45 25 26 Ar
46 25 88 1
47 26 27 Ar
48 26 91 1
49 27 28 Ar
50 27 108 1
51 28 29 Ar
52 28 89 1
53 29 90 1
54 30 31 Ar
55 30 35 Ar
56 31 32 Ar
57 31 96 1
58 32 33 Ar
59 32 95 1
60 33 34 Ar
61 33 97 1
62 34 35 Ar
63 34 94 1
64 35 93 1
65 36 37 Ar
66 36 41 Ar
67 37 38 Ar
68 37 85 1
69 38 39 Ar
70 38 92 1
71 39 40 Ar
72 39 119 1
73 40 41 Ar
74 40 86 1
75 41 87 1
76 50 51 1
77 51 52 1
78 51 63 1
79 51 74 1
80 52 53 Ar
81 52 54 Ar
82 53 55 Ar
83 53 56 1
84 54 57 Ar
85 54 58 1
86 55 59 Ar
87 55 60 1
88 57 59 Ar
89 57 61 1
90 59 62 1
91 63 64 Ar
92 63 65 Ar
93 64 66 Ar
94 64 67 1
95 65 68 Ar
96 65 69 1
97 66 70 Ar
98 66 71 1
99 68 70 Ar
100 68 72 1
101 70 73 1
102 74 75 Ar
103 74 76 Ar
104 75 77 Ar
105 75 78 1
106 76 79 Ar
107 76 80 1
108 77 81 Ar
109 77 82 1
110 79 81 Ar
111 79 83 1
112 81 84 1
113 97 98 Ar
114 97 99 Ar
115 98 100 Ar
116 98 101 1
117 99 102 Ar
118 99 103 1
119 100 104 Ar
120 100 105 1
121 102 104 Ar
122 102 106 1
123 104 107 1
124 108 109 Ar
125 108 110 Ar
126 109 111 Ar
127 109 112 1
128 110 113 Ar
129 110 114 1
130 111 115 Ar
131 111 116 1
132 113 115 Ar
133 113 117 1
134 115 118 1
135 119 120 Ar
136 119 121 Ar
137 120 122 Ar
138 120 123 1
139 121 124 Ar
140 121 125 1
141 122 126 Ar
142 122 127 1
143 124 126 Ar
144 124 128 1
145 126 129 1
