# PPh3_3Ph_1Ph_TD
# Created by GaussView 6.0.16
#

#
#

@<TRIPOS>MOLECULE
Molecule Name
109 123
SMALL
NO_CHARGES


@<TRIPOS>ATOM
1 C1     1.2932     3.4225    -1.1614 C
2 C2    -2.2387     0.0183    -0.8410 C
3 C3     1.3623    -3.2960    -1.2691 C
4 C4     3.6297     0.8067    -1.7803 C
5 C5     4.5244     1.9029    -1.9546 C
6 C6     3.8002     3.0598    -1.7144 C
7 C7     2.4547     2.6692    -1.3902 C
8 N8     2.4008     1.2998    -1.4375 N
9 C9     0.0233     2.8174    -1.0397 C
10 C10    -1.2272     3.5021    -0.8557 C
11 C11    -2.2201     2.5598    -0.7885 C
12 C12    -1.5990     1.2687    -0.9157 C
13 N13    -0.2311     1.4458    -1.0595 N
14 C14    -1.5684    -1.2138    -0.9182 C
15 C15    -2.1699    -2.5221    -0.9152 C
16 C16    -1.1570    -3.4378    -1.0117 C
17 C17     0.0868    -2.7170    -1.0867 C
18 N18    -0.1966    -1.3575    -1.0372 N
19 C19     2.5007    -2.5150    -1.5210 C
20 C20     3.8558    -2.8614    -1.8555 C
21 C21     4.5509    -1.6795    -2.0657 C
22 C22     3.6378    -0.6097    -1.8351 C
23 N23     2.4185    -1.1434    -1.5147 N
24 C24     1.5001    -4.7747    -1.2243 C
25 C25     2.0322    -5.4846    -2.3125 C
26 C26     2.1794    -6.8704    -2.2537 C
27 C27     1.7980    -7.5699    -1.1069 C
28 C28     1.2649    -6.8735    -0.0200 C
29 C29     1.1170    -5.4882    -0.0772 C
30 C30    -3.7168     0.0019    -0.6569 C
31 C31    -4.2923    -0.5726     0.4866 C
32 C32    -5.6718    -0.5753     0.6706 C
33 C33    -6.5306    -0.0017    -0.2814 C
34 C34    -5.9529     0.5692    -1.4272 C
35 C35    -4.5733     0.5705    -1.6117 C
36 C36     1.4210     4.9010    -1.0834 C
37 C37     0.7260     5.7470    -1.9624 C
38 C38     0.8745     7.1314    -1.8838 C
39 C39     1.7221     7.6949    -0.9275 C
40 C40     2.4238     6.8636    -0.0523 C
41 C41     2.2759     5.4793    -0.1310 C
42 H42     4.2420    -3.8671    -1.9430 H
43 H43     5.5911    -1.5756    -2.3459 H
44 H44     5.5661     1.8323    -2.2391 H
45 H45     4.1554     4.0785    -1.7843 H
46 H46    -1.2496    -4.5130    -1.0653 H
47 H47    -3.2317    -2.7173    -0.8742 H
48 H48    -3.2778     2.7318    -0.6525 H
49 H49    -1.3411     4.5739    -0.7837 H
50 Co50     1.0642     0.0565    -0.9950 Co
51 P51     1.6416    -0.0573     1.1449 P
52 C52     3.4293     0.2678     1.3288 C
53 C53     3.8696     1.5592     1.6599 C
54 C54     4.3769    -0.7189     1.0228 C
55 C55     5.2314     1.8446     1.7163 C
56 H56     3.1494     2.3412     1.8707 H
57 C57     5.7401    -0.4334     1.1008 C
58 H58     4.0593    -1.7056     0.7078 H
59 C59     6.1708     0.8461     1.4489 C
60 H60     5.5576     2.8495     1.9684 H
61 H61     6.4607    -1.2114     0.8664 H
62 H62     7.2327     1.0698     1.4992 H
63 C63     1.2912    -1.6640     1.9714 C
64 C64     2.2443    -2.3855     2.7023 C
65 C65    -0.0422    -2.1016     1.9765 C
66 C66     1.8738    -3.5363     3.4008 C
67 H67     3.2728    -2.0516     2.7469 H
68 C68    -0.4101    -3.2455     2.6797 C
69 H69    -0.7974    -1.5465     1.4339 H
70 C70     0.5489    -3.9714     3.3903 C
71 H71     2.6262    -4.0871     3.9578 H
72 H72    -1.4455    -3.5723     2.6610 H
73 H73     0.2639    -4.8670     3.9351 H
74 C74     0.8867     1.0755     2.3836 C
75 C75     1.4396     1.0894     3.6779 C
76 C76    -0.2450     1.8480     2.1193 C
77 C77     0.8810     1.8866     4.6719 C
78 H78     2.3070     0.4787     3.9063 H
79 C79    -0.8059     2.6450     3.1205 C
80 H80    -0.6983     1.8290     1.1438 H
81 C81    -0.2432     2.6714     4.3940 C
82 H82     1.3207     1.8933     5.6652 H
83 H83    -1.6828     3.2430     2.8904 H
84 H84    -0.6773     3.2941     5.1713 H
85 H85     0.0804     5.3107    -2.7181 H
86 H86     3.0849     7.2931     0.6957 H
87 H87     2.8171     4.8321     0.5525 H
88 H88     2.3148    -4.9445    -3.2107 H
89 H89     0.9694    -7.4087     0.8786 H
90 H90     0.7157    -4.9455     0.7718 H
91 H91     2.5865    -7.4043    -3.1081 H
92 H92     0.3337     7.7702    -2.5767 H
93 H93    -4.1478     1.0195    -2.5041 H
94 H94    -6.5908     1.0358    -2.1719 H
95 H95    -6.0906    -1.0428     1.5569 H
96 H96    -3.6474    -1.0190     1.2378 H
97 H97     1.9131    -8.6493    -1.0620 H
98 H98     1.8368     8.7736    -0.8672 H
99 C99    -7.9991     0.0062    -0.0812 C
100 C100    -8.8771    -0.1608    -1.1654 C
101 C101    -8.5500     0.1882     1.1986 C
102 C102   -10.2580    -0.1454    -0.9765 C
103 H103    -8.4718    -0.3273    -2.1591 H
104 C104    -9.9308     0.2025     1.3878 C
105 H105    -7.8894     0.3458     2.0460 H
106 C106   -10.7916     0.0366     0.3010 C
107 H107   -10.9183    -0.2841    -1.8283 H
108 H108   -10.3352     0.3529     2.3850 H
109 H109   -11.8677     0.0488     0.4482 H
@<TRIPOS>BOND
1 1 7 Ar
2 1 9 Ar
3 1 36 1
4 2 12 Ar
5 2 14 Ar
6 2 30 1
7 3 17 Ar
8 3 19 Ar
9 3 24 1
10 4 5 Ar
11 4 8 Ar
12 4 22 Ar
13 5 6 2
14 5 44 1
15 6 7 Ar
16 6 45 1
17 7 8 Ar
18 8 50 1
19 9 10 Ar
20 9 13 1
21 10 11 2
22 10 49 1
23 11 12 Ar
24 11 48 1
25 12 13 1
26 13 50 1
27 14 15 Ar
28 14 18 1
29 15 16 2
30 15 47 1
31 16 17 Ar
32 16 46 1
33 17 18 1
34 18 50 1
35 19 20 Ar
36 19 23 Ar
37 20 21 Ar
38 20 42 1
39 21 22 Ar
40 21 43 1
41 22 23 Ar
42 23 50 1
43 24 25 Ar
44 24 29 Ar
45 25 26 Ar
46 25 88 1
47 26 27 Ar
48 26 91 1
49 27 28 Ar
50 27 97 1
51 28 29 Ar
52 28 89 1
53 29 90 1
54 30 31 Ar
55 30 35 Ar
56 31 32 Ar
57 31 96 1
58 32 33 Ar
59 32 95 1
60 33 34 Ar
61 33 99 1
62 34 35 Ar
63 34 94 1
64 35 93 1
65 36 37 Ar
66 36 41 Ar
67 37 38 Ar
68 37 85 1
69 38 39 Ar
70 38 92 1
71 39 40 Ar
72 39 98 1
73 40 41 Ar
74 40 86 1
75 41 87 1
76 50 51 1
77 51 52 1
78 51 63 1
79 51 74 1
80 52 53 Ar
81 52 54 Ar
82 53 55 Ar
83 53 56 1
84 54 57 Ar
85 54 58 1
86 55 59 Ar
87 55 60 1
88 57 59 Ar
89 57 61 1
90 59 62 1
91 63 64 Ar
92 63 65 Ar
93 64 66 Ar
94 64 67 1
95 65 68 Ar
96 65 69 1
97 66 70 Ar
98 66 71 1
99 68 70 Ar
100 68 72 1
101 70 73 1
102 74 75 Ar
103 74 76 Ar
104 75 77 Ar
105 75 78 1
106 76 79 Ar
107 76 80 1
108 77 81 Ar
109 77 82 1
110 79 81 Ar
111 79 83 1
112 81 84 1
113 99 100 Ar
114 99 101 Ar
115 100 102 Ar
116 100 103 1
117 101 104 Ar
118 101 105 1
119 102 106 Ar
120 102 107 1
121 104 106 Ar
122 104 108 1
123 106 109 1
