# PPh3_3Ph_2CF3
# Created by GaussView 6.0.16
#

#
#

@<TRIPOS>MOLECULE
Molecule Name
105 118
SMALL
NO_CHARGES


@<TRIPOS>ATOM
1 C1     3.4094    -0.3015    -1.0615 C
2 C2     0.0228     3.2426    -0.7181 C
3 C3    -3.3040    -0.3454    -1.1379 C
4 C4     0.7843    -2.6276    -1.6741 C
5 C5     1.8764    -3.5263    -1.8557 C
6 C6     3.0367    -2.8077    -1.6180 C
7 C7     2.6524    -1.4611    -1.2879 C
8 N8     1.2838    -1.4015    -1.3294 N
9 C9     2.8117     0.9716    -0.9354 C
10 C10     3.5020     2.2196    -0.7524 C
11 C11     2.5632     3.2151    -0.6778 C
12 C12     1.2698     2.5982    -0.7983 C
13 N13     1.4417     1.2298    -0.9461 N
14 C14    -1.2116     2.5774    -0.7933 C
15 C15    -2.5173     3.1840    -0.7827 C
16 C16    -3.4374     2.1750    -0.8755 C
17 C17    -2.7211     0.9286    -0.9560 C
18 N18    -1.3612     1.2062    -0.9139 N
19 C19    -2.5307    -1.4869    -1.3993 C
20 C20    -2.8835    -2.8409    -1.7343 C
21 C21    -1.7053    -3.5393    -1.9511 C
22 C22    -0.6313    -2.6303    -1.7234 C
23 N23    -1.1595    -1.4093    -1.3984 N
24 C24    -4.7807    -0.4796    -1.0693 C
25 C25    -5.5111    -1.0271    -2.1364 C
26 C26    -6.8917    -1.1808    -2.0493 C
27 C27    -7.5643    -0.7870    -0.8893 C
28 C28    -6.8525    -0.2330     0.1777 C
29 C29    -5.4721    -0.0834     0.0868 C
30 C30     0.0108     4.7221    -0.5329 C
31 C31    -0.5469     5.2914     0.6222 C
32 C32    -0.5550     6.6745     0.8021 C
33 C33    -0.0038     7.5115    -0.1702 C
34 C34     0.5541     6.9562    -1.3235 C
35 C35     0.5611     5.5730    -1.5035 C
36 C36     4.8864    -0.4348    -0.9888 C
37 C37     5.7336     0.2659    -1.8628 C
38 C38     7.1150     0.1168    -1.7884 C
39 C39     7.6727    -0.7434    -0.8383 C
40 C40     6.8444    -1.4550     0.0324 C
41 C41     5.4634    -1.3017    -0.0466 C
42 H42    -3.8900    -3.2261    -1.8170 H
43 H43    -1.6065    -4.5793    -2.2336 H
44 H44     1.8009    -4.5667    -2.1433 H
45 H45     4.0532    -3.1680    -1.6946 H
46 H46    -4.5123     2.2739    -0.9244 H
47 H47    -2.7079     4.2464    -0.7387 H
48 H48     2.7386     4.2721    -0.5417 H
49 H49     4.5743     2.3320    -0.6851 H
50 Co50     0.0476    -0.0606    -0.8811 Co
51 P51    -0.0615    -0.6416     1.2591 P
52 C52     0.2495    -2.4322     1.4370 C
53 C53     1.5388    -2.8835     1.7614 C
54 C54    -0.7463    -3.3714     1.1352 C
55 C55     1.8133    -4.2477     1.8152 C
56 H56     2.3275    -2.1700     1.9705 H
57 C57    -0.4718    -4.7370     1.2101 C
58 H58    -1.7320    -3.0456     0.8256 H
59 C59     0.8059    -5.1785     1.5513 C
60 H60     2.8163    -4.5825     2.0631 H
61 H61    -1.2568    -5.4510     0.9792 H
62 H62     1.0211    -6.2422     1.5999 H
63 C63    -1.6619    -0.2765     2.0913 C
64 C64    -2.3934    -1.2246     2.8191 C
65 C65    -2.0816     1.0627     2.1061 C
66 C66    -3.5366    -0.8428     3.5241 C
67 H67    -2.0727    -2.2575     2.8575 H
68 C68    -3.2177     1.4415     2.8161 C
69 H69    -1.5184     1.8140     1.5662 H
70 C70    -3.9537     0.4880     3.5239 C
71 H71    -4.0950    -1.5910     4.0792 H
72 H72    -3.5299     2.4816     2.8062 H
73 H73    -4.8425     0.7817     4.0750 H
74 C74     1.0839     0.1017     2.4927 C
75 C75     1.1012    -0.4576     3.7843 C
76 C76     1.8617     1.2300     2.2296 C
77 C77     1.9080     0.0907     4.7762 C
78 H78     0.4861    -1.3221     4.0122 H
79 C79     2.6685     1.7803     3.2288 C
80 H80     1.8395     1.6891     1.2570 H
81 C81     2.6989     1.2108     4.4993 C
82 H82     1.9174    -0.3540     5.7673 H
83 H83     3.2705     2.6548     3.0001 H
84 H84     3.3292     1.6367     5.2749 H
85 H85     5.3007     0.9168    -2.6150 H
86 H86     7.2775    -2.1254     0.7669 H
87 H87     4.8178    -1.8510     0.6308 H
88 H88    -4.9912    -1.3215    -3.0418 H
89 H89    -7.3735     0.0642     1.0816 H
90 H90    -4.9153     0.3263     0.9218 H
91 H91    -7.4450    -1.6053    -2.8805 H
92 H92     7.7581     0.6553    -2.4767 H
93 H93     0.9881     5.1418    -2.4039 H
94 H94     0.9799     7.6005    -2.0878 H
95 H95    -0.9870     7.0981     1.7048 H
96 H96    -0.9672     4.6407     1.3835 H
97 H97    -0.0093     8.5888    -0.0302 H
98 C98    -9.0574    -0.9079    -0.8163 C
99 C99     9.1636    -0.8544    -0.7176 C
100 F100    -9.6816     0.1712    -1.3510 F
101 F101    -9.4983    -1.0160     0.4582 F
102 F102    -9.5132    -1.9883    -1.4917 F
103 F103     9.6780     0.1087     0.0879 F
104 F104     9.7817    -0.7243    -1.9139 F
105 F105     9.5471    -2.0407    -0.1932 F
@<TRIPOS>BOND
1 1 7 Ar
2 1 9 Ar
3 1 36 1
4 2 12 Ar
5 2 14 Ar
6 2 30 1
7 3 17 Ar
8 3 19 Ar
9 3 24 1
10 4 5 Ar
11 4 8 Ar
12 4 22 Ar
13 5 6 2
14 5 44 1
15 6 7 Ar
16 6 45 1
17 7 8 Ar
18 8 50 1
19 9 10 Ar
20 9 13 1
21 10 11 2
22 10 49 1
23 11 12 Ar
24 11 48 1
25 12 13 1
26 13 50 1
27 14 15 Ar
28 14 18 1
29 15 16 2
30 15 47 1
31 16 17 Ar
32 16 46 1
33 17 18 1
34 18 50 1
35 19 20 Ar
36 19 23 Ar
37 20 21 Ar
38 20 42 1
39 21 22 Ar
40 21 43 1
41 22 23 Ar
42 23 50 1
43 24 25 Ar
44 24 29 Ar
45 25 26 Ar
46 25 88 1
47 26 27 Ar
48 26 91 1
49 27 28 Ar
50 27 98 1
51 28 29 Ar
52 28 89 1
53 29 90 1
54 30 31 Ar
55 30 35 Ar
56 31 32 Ar
57 31 96 1
58 32 33 Ar
59 32 95 1
60 33 34 Ar
61 33 97 1
62 34 35 Ar
63 34 94 1
64 35 93 1
65 36 37 Ar
66 36 41 Ar
67 37 38 Ar
68 37 85 1
69 38 39 Ar
70 38 92 1
71 39 40 Ar
72 39 99 1
73 40 41 Ar
74 40 86 1
75 41 87 1
76 50 51 1
77 51 52 1
78 51 63 1
79 51 74 1
80 52 53 Ar
81 52 54 Ar
82 53 55 Ar
83 53 56 1
84 54 57 Ar
85 54 58 1
86 55 59 Ar
87 55 60 1
88 57 59 Ar
89 57 61 1
90 59 62 1
91 63 64 Ar
92 63 65 Ar
93 64 66 Ar
94 64 67 1
95 65 68 Ar
96 65 69 1
97 66 70 Ar
98 66 71 1
99 68 70 Ar
100 68 72 1
101 70 73 1
102 74 75 Ar
103 74 76 Ar
104 75 77 Ar
105 75 78 1
106 76 79 Ar
107 76 80 1
108 77 81 Ar
109 77 82 1
110 79 81 Ar
111 79 83 1
112 81 84 1
113 98 100 1
114 98 101 1
115 98 102 1
116 99 103 1
117 99 104 1
118 99 105 1
