# 150c_C4_TD
# Created by GaussView 6.0.16
#

#
#

@<TRIPOS>MOLECULE
Molecule Name
81 88
SMALL
NO_CHARGES


@<TRIPOS>ATOM
1 C1     2.6541    -1.4357    -0.2071 C
2 C2    -0.7337     2.1350    -0.0980 C
3 C3    -4.1850    -1.3420    -0.0610 C
4 C4    -0.1097    -3.7590    -0.2859 C
5 C5     0.8996    -4.6558     0.1208 C
6 C6     2.1106    -3.9582     0.1608 C
7 C7     1.8657    -2.6120    -0.2106 C
8 N8     0.5155    -2.5426    -0.4965 N
9 C9     2.0942    -0.1492    -0.2290 C
10 C10     2.7611     1.1155    -0.3272 C
11 C11     1.8215     2.1167    -0.2926 C
12 C12     0.5232     1.5199    -0.1725 C
13 N13     0.7339     0.1548    -0.1606 N
14 C14    -1.9913     1.4780    -0.0454 C
15 C15    -3.2759     2.1653    -0.0328 C
16 C16    -4.2387     1.2039    -0.0158 C
17 C17    -3.5554    -0.0777    -0.0241 C
18 N18    -2.1875     0.1296    -0.0373 N
19 C19    -3.4571    -2.5478    -0.1889 C
20 C20    -3.7835    -3.9355    -0.1258 C
21 C21    -2.5948    -4.6582    -0.1795 C
22 C22    -1.5257    -3.7273    -0.2846 C
23 N23    -2.1004    -2.4872    -0.3202 N
24 C24     4.1336    -1.5647    -0.1533 C
25 C25     4.7958    -2.0961     0.9562 C
26 C26     6.1776    -2.2057     0.9953 C
27 C27     6.3307    -1.2912    -1.1903 C
28 C28     4.9465    -1.1681    -1.2188 C
29 H29     0.7383    -5.6796     0.4294 H
30 H30     3.0578    -4.3481     0.5031 H
31 H31     0.1534    -1.8603    -1.1509 H
32 H32     3.8294     1.2387    -0.4287 H
33 H33     2.0109     3.1783    -0.3539 H
34 H34     0.0220    -0.4566     0.2154 H
35 H35    -3.4233     3.2360    -0.0521 H
36 H36    -5.3099     1.3511    -0.0283 H
37 H37    -4.7808    -4.3426    -0.0350 H
38 H38    -2.4882    -5.7340    -0.1579 H
39 H39    -1.6622    -1.5632    -0.2312 H
40 F40     4.3841    -0.6666    -2.3332 F
41 F41     7.0203    -0.9288    -2.2857 F
42 F42     4.0926    -2.4997     2.0303 F
43 F43     6.7629    -2.7047     2.1064 F
44 C44     6.9967    -1.7977    -0.0667 C
45 N45     8.3919    -1.9699    -0.0152 N
46 H46     8.5939    -2.6622     0.7017 H
47 C47     9.2577    -0.7826     0.2585 C
48 H48    10.2526    -1.2218     0.4036 H
49 C49     8.8509    -0.0673     1.5598 C
50 H50     7.8527     0.3710     1.4241 H
51 H51     8.7521    -0.8206     2.3520 H
52 C52     9.8322     1.0177     2.0078 C
53 H53     9.8612     1.8582     1.3062 H
54 H54    10.8514     0.6206     2.0962 H
55 C55     9.3365     0.1628    -0.9368 C
56 H56     9.5406    -0.3926    -1.8553 H
57 H57     8.4073     0.7255    -1.0731 H
58 H58    10.1437     0.8862    -0.7865 H
59 C59    -0.7381     3.6253    -0.0970 C
60 C60    -0.3476     4.3629    -1.2179 C
61 C61    -1.1382     4.3534     1.0272 C
62 C62    -0.3460     5.7540    -1.2253 C
63 C63    -1.1581     5.7441     1.0402 C
64 C64    -0.7566     6.4473    -0.0913 C
65 C65    -5.6608    -1.4316     0.0491 C
66 C66    -6.4313    -2.0430    -0.9472 C
67 C67    -6.3532    -0.9338     1.1596 C
68 C68    -7.8144    -2.1513    -0.8536 C
69 C69    -7.7369    -1.0213     1.2689 C
70 C70    -8.4708    -1.6348     0.2588 C
71 F71     0.0378     6.4276    -2.3175 F
72 F72     0.0468     3.7307    -2.3336 F
73 F73    -0.7646     7.7840    -0.0884 F
74 F74    -1.5497     6.4085     2.1350 F
75 F75    -1.5249     3.7103     2.1382 F
76 F76    -5.6858    -0.3577     2.1692 F
77 F77    -8.3645    -0.5352     2.3471 F
78 F78    -9.8002    -1.7282     0.3575 F
79 F79    -5.8413    -2.5396    -2.0449 F
80 F80    -8.5177    -2.7361    -1.8317 F
81 H81     9.5471     1.4172     2.9874 H
@<TRIPOS>BOND
1 1 7 Ar
2 1 9 Ar
3 1 24 1
4 2 12 Ar
5 2 14 Ar
6 2 59 1
7 3 17 Ar
8 3 19 Ar
9 3 65 1
10 4 5 Ar
11 4 8 1
12 4 22 Ar
13 5 6 Ar
14 5 29 1
15 6 7 Ar
16 6 30 1
17 7 8 1
18 8 31 1
19 9 10 Ar
20 9 13 1
21 10 11 2
22 10 32 1
23 11 12 Ar
24 11 33 1
25 12 13 Ar
26 13 34 1
27 14 15 1
28 14 18 Ar
29 15 16 2
30 15 35 1
31 16 17 1
32 16 36 1
33 17 18 1
34 19 20 Ar
35 19 23 Ar
36 20 21 Ar
37 20 37 1
38 21 22 Ar
39 21 38 1
40 22 23 Ar
41 23 39 1
42 24 25 Ar
43 24 28 Ar
44 25 26 Ar
45 25 42 1
46 26 43 1
47 26 44 Ar
48 27 28 Ar
49 27 41 1
50 27 44 Ar
51 28 40 1
52 44 45 1
53 45 46 1
54 45 47 1
55 47 48 1
56 47 49 1
57 47 55 1
58 49 50 1
59 49 51 1
60 49 52 1
61 52 53 1
62 52 54 1
63 52 81 1
64 55 56 1
65 55 57 1
66 55 58 1
67 59 60 Ar
68 59 61 Ar
69 60 62 Ar
70 60 72 1
71 61 63 Ar
72 61 75 1
73 62 64 Ar
74 62 71 1
75 63 64 Ar
76 63 74 1
77 64 73 1
78 65 66 Ar
79 65 67 Ar
80 66 68 Ar
81 66 79 1
82 67 69 Ar
83 67 76 1
84 68 70 Ar
85 68 80 1
86 69 70 Ar
87 69 77 1
88 70 78 1
