# PPh3_3Ph_2CF3_5F
# Created by GaussView 6.0.16
#

#
#

@<TRIPOS>MOLECULE
Molecule Name
105 118
SMALL
NO_CHARGES


@<TRIPOS>ATOM
1 C1     3.4390    -0.7864    -1.0161 C
2 C2     0.0263     2.7226    -0.6957 C
3 C3    -3.2784    -0.8643    -1.1685 C
4 C4     0.8304    -3.1336    -1.6246 C
5 C5     1.9286    -4.0277    -1.7888 C
6 C6     3.0830    -3.3010    -1.5447 C
7 C7     2.6890    -1.9542    -1.2291 C
8 N8     1.3202    -1.9036    -1.2810 N
9 C9     2.8340     0.4831    -0.9051 C
10 C10     3.5142     1.7376    -0.7256 C
11 C11     2.5672     2.7252    -0.6484 C
12 C12     1.2809     2.0959    -0.7650 C
13 N13     1.4616     0.7319    -0.9170 N
14 C14    -1.2051     2.0615    -0.8056 C
15 C15    -2.5107     2.6655    -0.7975 C
16 C16    -3.4264     1.6546    -0.9004 C
17 C17    -2.7048     0.4103    -0.9808 C
18 N18    -1.3456     0.6939    -0.9310 N
19 C19    -2.4946    -2.0026    -1.4217 C
20 C20    -2.8357    -3.3575    -1.7612 C
21 C21    -1.6505    -4.0533    -1.9500 C
22 C22    -0.5851    -3.1411    -1.7011 C
23 N23    -1.1241    -1.9203    -1.3936 N
24 C24    -4.7549    -1.0054    -1.1115 C
25 C25    -5.4742    -1.5627    -2.1810 C
26 C26    -6.8550    -1.7196    -2.1046 C
27 C27    -7.5386    -1.3188    -0.9535 C
28 C28    -6.8379    -0.7549     0.1155 C
29 C29    -5.4570    -0.6023     0.0359 C
30 C30    -0.0045     4.1910    -0.4631 C
31 C31    -0.5157     4.7279     0.7221 C
32 C32    -0.5590     6.0979     0.9567 C
33 C33    -0.0726     6.9745    -0.0086 C
34 C34     0.4481     6.4738    -1.1979 C
35 C35     0.4713     5.0992    -1.4128 C
36 C36     4.9174    -0.9092    -0.9442 C
37 C37     5.7562    -0.2193    -1.8326 C
38 C38     7.1400    -0.3630    -1.7649 C
39 C39     7.7046    -1.2070    -0.8073 C
40 C40     6.8830    -1.9057     0.0826 C
41 C41     5.5024    -1.7573     0.0116 C
42 H42    -3.8387    -3.7468    -1.8639 H
43 H43    -1.5426    -5.0938    -2.2269 H
44 H44     1.8613    -5.0701    -2.0709 H
45 H45     4.1020    -3.6563    -1.6103 H
46 H46    -4.5012     1.7500    -0.9539 H
47 H47    -2.7079     3.7271    -0.7476 H
48 H48     2.7379     3.7842    -0.5162 H
49 H49     4.5857     1.8595    -0.6647 H
50 Co50     0.0711    -0.5631    -0.8722 Co
51 P51    -0.0714    -1.1217     1.2712 P
52 C52     0.1444    -2.9241     1.4694 C
53 C53     1.4097    -3.4333     1.8041 C
54 C54    -0.8930    -3.8191     1.1745 C
55 C55     1.6173    -4.8080     1.8808 C
56 H56     2.2327    -2.7571     2.0033 H
57 C57    -0.6861    -5.1951     1.2733 C
58 H58    -1.8564    -3.4529     0.8430 H
59 C59     0.5666    -5.6930     1.6288 C
60 H60     2.6023    -5.1869     2.1369 H
61 H61    -1.5034    -5.8732     1.0471 H
62 H62     0.7292    -6.7649     1.6958 H
63 C63    -1.6527    -0.6333     2.0713 C
64 C64    -2.5242    -1.5177     2.7186 C
65 C65    -1.9158     0.7447     2.1225 C
66 C66    -3.6557    -1.0301     3.3772 C
67 H67    -2.3245    -2.5808     2.7329 H
68 C68    -3.0430     1.2269     2.7795 C
69 H69    -1.2374     1.4481     1.6571 H
70 C70    -3.9219     0.3388     3.4057 C
71 H71    -4.3257    -1.7277     3.8714 H
72 H72    -3.2289     2.2964     2.7966 H
73 H73    -4.8033     0.7129     3.9187 H
74 C74     1.1061    -0.4262     2.5024 C
75 C75     1.1070    -0.9920     3.7914 C
76 C76     1.9120     0.6842     2.2476 C
77 C77     1.9268    -0.4702     4.7871 C
78 H78     0.4700    -1.8415     4.0145 H
79 C79     2.7323     1.2072     3.2502 C
80 H80     1.9003     1.1511     1.2790 H
81 C81     2.7475     0.6298     4.5173 C
82 H82     1.9227    -0.9201     5.7757 H
83 H83     3.3564     2.0677     3.0273 H
84 H84     3.3878     1.0347     5.2957 H
85 H85     5.3173     0.4189    -2.5923 H
86 H86     7.3232    -2.5628     0.8260 H
87 H87     4.8632    -2.2950     0.7042 H
88 H88    -4.9461    -1.8611    -3.0803 H
89 H89    -7.3677    -0.4515     1.0122 H
90 H90    -4.9090    -0.1843     0.8726 H
91 H91    -7.3998    -2.1515    -2.9375 H
92 H92     7.7766     0.1678    -2.4640 H
93 C93    -9.0323    -1.4426    -0.8929 C
94 C94     9.1933    -1.3517    -0.6895 C
95 F95    -9.6533    -0.3673    -1.4380 F
96 F96    -9.4836    -1.5456     0.3783 F
97 F97    -9.4797    -2.5271    -1.5671 F
98 F98     9.6819    -0.6776     0.3814 F
99 F99     9.8462    -0.8862    -1.7764 F
100 F100     9.5603    -2.6448    -0.5228 F
101 F101    -0.9782     3.9154     1.6896 F
102 F102    -1.0538     6.5773     2.1052 F
103 F103    -0.1041     8.2931     0.2071 F
104 F104     0.9104     7.3163    -2.1300 F
105 F105     0.9687     4.6537    -2.5753 F
@<TRIPOS>BOND
1 1 7 Ar
2 1 9 Ar
3 1 36 1
4 2 12 Ar
5 2 14 Ar
6 2 30 1
7 3 17 Ar
8 3 19 Ar
9 3 24 1
10 4 5 Ar
11 4 8 Ar
12 4 22 Ar
13 5 6 2
14 5 44 1
15 6 7 Ar
16 6 45 1
17 7 8 Ar
18 8 50 1
19 9 10 Ar
20 9 13 1
21 10 11 2
22 10 49 1
23 11 12 Ar
24 11 48 1
25 12 13 1
26 13 50 1
27 14 15 Ar
28 14 18 Ar
29 15 16 2
30 15 47 1
31 16 17 Ar
32 16 46 1
33 17 18 1
34 18 50 1
35 19 20 Ar
36 19 23 Ar
37 20 21 Ar
38 20 42 1
39 21 22 Ar
40 21 43 1
41 22 23 Ar
42 23 50 1
43 24 25 Ar
44 24 29 Ar
45 25 26 Ar
46 25 88 1
47 26 27 Ar
48 26 91 1
49 27 28 Ar
50 27 93 1
51 28 29 Ar
52 28 89 1
53 29 90 1
54 30 31 Ar
55 30 35 Ar
56 31 32 Ar
57 31 101 1
58 32 33 Ar
59 32 102 1
60 33 34 Ar
61 33 103 1
62 34 35 Ar
63 34 104 1
64 35 105 1
65 36 37 Ar
66 36 41 Ar
67 37 38 Ar
68 37 85 1
69 38 39 Ar
70 38 92 1
71 39 40 Ar
72 39 94 1
73 40 41 Ar
74 40 86 1
75 41 87 1
76 50 51 1
77 51 52 1
78 51 63 1
79 51 74 1
80 52 53 Ar
81 52 54 Ar
82 53 55 Ar
83 53 56 1
84 54 57 Ar
85 54 58 1
86 55 59 Ar
87 55 60 1
88 57 59 Ar
89 57 61 1
90 59 62 1
91 63 64 Ar
92 63 65 Ar
93 64 66 Ar
94 64 67 1
95 65 68 Ar
96 65 69 1
97 66 70 Ar
98 66 71 1
99 68 70 Ar
100 68 72 1
101 70 73 1
102 74 75 Ar
103 74 76 Ar
104 75 77 Ar
105 75 78 1
106 76 79 Ar
107 76 80 1
108 77 81 Ar
109 77 82 1
110 79 81 Ar
111 79 83 1
112 81 84 1
113 93 95 1
114 93 96 1
115 93 97 1
116 94 98 1
117 94 99 1
118 94 100 1
