# PPh3_3Ph_2CF3_OCH3
# Created by GaussView 6.0.16
#

#
#

@<TRIPOS>MOLECULE
Molecule Name
109 122
SMALL
NO_CHARGES


@<TRIPOS>ATOM
1 C1     3.3988    -0.6067    -1.0562 C
2 C2     0.0448     2.9632    -0.6512 C
3 C3    -3.3139    -0.5869    -1.1473 C
4 C4     0.7539    -2.8987    -1.7106 C
5 C5     1.8384    -3.8037    -1.9076 C
6 C6     3.0048    -3.0993    -1.6578 C
7 C7     2.6321    -1.7554    -1.3039 C
8 N8     1.2640    -1.6832    -1.3441 N
9 C9     2.8125     0.6691    -0.9050 C
10 C10     3.5142     1.9058    -0.6913 C
11 C11     2.5844     2.9083    -0.5979 C
12 C12     1.2857     2.3072    -0.7387 C
13 N13     1.4452     0.9407    -0.9160 N
14 C14    -1.1949     2.3100    -0.7471 C
15 C15    -2.4947     2.9286    -0.7308 C
16 C16    -3.4243     1.9301    -0.8435 C
17 C17    -2.7196     0.6786    -0.9432 C
18 N18    -1.3574     0.9425    -0.8924 N
19 C19    -2.5509    -1.7314    -1.4252 C
20 C20    -2.9157    -3.0765    -1.7831 C
21 C21    -1.7435    -3.7823    -2.0082 C
22 C22    -0.6614    -2.8874    -1.7628 C
23 N23    -1.1790    -1.6668    -1.4198 N
24 C24    -4.7917    -0.7094    -1.0814 C
25 C25    -5.5268    -1.2333    -2.1572 C
26 C26    -6.9082    -1.3794    -2.0715 C
27 C27    -7.5773    -1.0016    -0.9042 C
28 C28    -6.8610    -0.4703     0.1713 C
29 C29    -5.4798    -0.3280     0.0817 C
30 C30     0.0450     4.4361    -0.4285 C
31 C31    -0.5173     4.9879     0.7362 C
32 C32    -0.5142     6.3583     0.9569 C
33 C33     0.0555     7.2238     0.0108 C
34 C34     0.6192     6.6940    -1.1561 C
35 C35     0.6091     5.3129    -1.3621 C
36 C36     4.8747    -0.7525    -0.9873 C
37 C37     5.7254    -0.0401    -1.8485 C
38 C38     7.1059    -0.1986    -1.7779 C
39 C39     7.6591    -1.0801    -0.8449 C
40 C40     6.8272    -1.8038     0.0124 C
41 C41     5.4470    -1.6411    -0.0628 C
42 H42    -3.9255    -3.4507    -1.8747 H
43 H43    -1.6538    -4.8185    -2.3070 H
44 H44     1.7538    -4.8383    -2.2130 H
45 H45     4.0182    -3.4669    -1.7408 H
46 H46    -4.4981     2.0398    -0.8942 H
47 H47    -2.6753     3.9918    -0.6688 H
48 H48     2.7684     3.9601    -0.4352 H
49 H49     4.5872     2.0055    -0.6164 H
50 Co50     0.0391    -0.3383    -0.8761 Co
51 P51    -0.0838    -0.9536     1.2544 P
52 C52     0.2089    -2.7500     1.4033 C
53 C53     1.4934    -3.2194     1.7211 C
54 C54    -0.7958    -3.6743     1.0851 C
55 C55     1.7541    -4.5869     1.7531 C
56 H56     2.2891    -2.5174     1.9424 H
57 C57    -0.5350    -5.0436     1.1382 C
58 H58    -1.7776    -3.3336     0.7796 H
59 C59     0.7378    -5.5034     1.4734 C
60 H60     2.7535    -4.9357     1.9963 H
61 H61    -1.3268    -5.7458     0.8945 H
62 H62     0.9423    -6.5698     1.5050 H
63 C63    -1.6830    -0.5858     2.0880 C
64 C64    -2.4259    -1.5374     2.7994 C
65 C65    -2.0895     0.7571     2.1218 C
66 C66    -3.5672    -1.1548     3.5072 C
67 H67    -2.1157    -2.5739     2.8231 H
68 C68    -3.2235     1.1367     2.8348 C
69 H69    -1.5177     1.5108     1.5944 H
70 C70    -3.9707     0.1800     3.5264 C
71 H71    -4.1346    -1.9057     4.0495 H
72 H72    -3.5253     2.1798     2.8397 H
73 H73    -4.8578     0.4743     4.0798 H
74 C74     1.0652    -0.2438     2.5045 C
75 C75     1.0741    -0.8250     3.7865 C
76 C76     1.8540     0.8818     2.2630 C
77 C77     1.8831    -0.3010     4.7897 C
78 H78     0.4511    -1.6880     3.9982 H
79 C79     2.6629     1.4077     3.2736 C
80 H80     1.8386     1.3577     1.2984 H
81 C81     2.6846     0.8166     4.5342 C
82 H82     1.8857    -0.7626     5.7731 H
83 H83     3.2729     2.2808     3.0613 H
84 H84     3.3163     1.2236     5.3187 H
85 H85     5.2955     0.6277    -2.5874 H
86 H86     7.2571    -2.4905     0.7337 H
87 H87     4.7984    -2.1995     0.6042 H
88 H88    -5.0094    -1.5161    -3.0678 H
89 H89    -7.3794    -0.1855     1.0807 H
90 H90    -4.9197     0.0633     0.9232 H
91 H91    -7.4650    -1.7860    -2.9094 H
92 H92     7.7518     0.3492    -2.4561 H
93 C93    -9.0708    -1.1172    -0.8318 C
94 C94     9.1495    -1.2003    -0.7274 C
95 F95    -9.6914    -0.0323    -1.3588 F
96 F96    -9.5122    -1.2332     0.4419 F
97 F97    -9.5305    -2.1911    -1.5152 F
98 F98     9.6700    -0.2477     0.0868 F
99 F99     9.7665    -1.0610    -1.9233 F
100 F100     9.5281    -2.3936    -0.2157 F
101 H101    -0.9535     4.3272     1.4797 H
102 H102    -0.9424     6.7834     1.8593 H
103 H103     1.0588     7.3393    -1.9073 H
104 H104     1.0421     4.9099    -2.2728 H
105 O105     0.0122     8.5497     0.3162 O
106 C106     0.5470     9.4689    -0.6262 C
107 H107     0.4075    10.4606    -0.1912 H
108 H108     1.6180     9.2976    -0.7954 H
109 H109     0.0157     9.4176    -1.5853 H
@<TRIPOS>BOND
1 1 7 Ar
2 1 9 Ar
3 1 36 1
4 2 12 Ar
5 2 14 Ar
6 2 30 1
7 3 17 Ar
8 3 19 Ar
9 3 24 1
10 4 5 Ar
11 4 8 Ar
12 4 22 Ar
13 5 6 2
14 5 44 1
15 6 7 Ar
16 6 45 1
17 7 8 Ar
18 8 50 1
19 9 10 Ar
20 9 13 1
21 10 11 2
22 10 49 1
23 11 12 Ar
24 11 48 1
25 12 13 1
26 13 50 1
27 14 15 Ar
28 14 18 1
29 15 16 2
30 15 47 1
31 16 17 Ar
32 16 46 1
33 17 18 1
34 18 50 1
35 19 20 Ar
36 19 23 Ar
37 20 21 Ar
38 20 42 1
39 21 22 Ar
40 21 43 1
41 22 23 Ar
42 23 50 1
43 24 25 Ar
44 24 29 Ar
45 25 26 Ar
46 25 88 1
47 26 27 Ar
48 26 91 1
49 27 28 Ar
50 27 93 1
51 28 29 Ar
52 28 89 1
53 29 90 1
54 30 31 Ar
55 30 35 Ar
56 31 32 Ar
57 31 101 1
58 32 33 Ar
59 32 102 1
60 33 34 Ar
61 33 105 1
62 34 35 Ar
63 34 103 1
64 35 104 1
65 36 37 Ar
66 36 41 Ar
67 37 38 Ar
68 37 85 1
69 38 39 Ar
70 38 92 1
71 39 40 Ar
72 39 94 1
73 40 41 Ar
74 40 86 1
75 41 87 1
76 50 51 1
77 51 52 1
78 51 63 1
79 51 74 1
80 52 53 Ar
81 52 54 Ar
82 53 55 Ar
83 53 56 1
84 54 57 Ar
85 54 58 1
86 55 59 Ar
87 55 60 1
88 57 59 Ar
89 57 61 1
90 59 62 1
91 63 64 Ar
92 63 65 Ar
93 64 66 Ar
94 64 67 1
95 65 68 Ar
96 65 69 1
97 66 70 Ar
98 66 71 1
99 68 70 Ar
100 68 72 1
101 70 73 1
102 74 75 Ar
103 74 76 Ar
104 75 77 Ar
105 75 78 1
106 76 79 Ar
107 76 80 1
108 77 81 Ar
109 77 82 1
110 79 81 Ar
111 79 83 1
112 81 84 1
113 93 95 1
114 93 96 1
115 93 97 1
116 94 98 1
117 94 99 1
118 94 100 1
119 105 106 1
120 106 107 1
121 106 108 1
122 106 109 1
