# PPh3_3Ph_3OCH3_TD
# Created by GaussView 6.0.16
#

#
#

@<TRIPOS>MOLECULE
Molecule Name
141 157
SMALL
NO_CHARGES


@<TRIPOS>ATOM
1 C1     3.4469    -1.1814    -0.9581 C
2 C2    -0.0243     2.2878    -0.6837 C
3 C3    -3.2727    -1.3848    -0.9997 C
4 C4     0.8710    -3.5828    -1.4945 C
5 C5     1.9828    -4.4597    -1.6596 C
6 C6     3.1274    -3.7078    -1.4471 C
7 C7     2.7135    -2.3632    -1.1493 C
8 N8     1.3430    -2.3373    -1.1837 N
9 C9     2.8174     0.0795    -0.8654 C
10 C10     3.4779     1.3484    -0.7219 C
11 C11     2.5157     2.3232    -0.6681 C
12 C12     1.2371     1.6720    -0.7614 C
13 N13     1.4405     0.3048    -0.8746 N
14 C14    -1.2433     1.5921    -0.7318 C
15 C15    -2.5623     2.1694    -0.7300 C
16 C16    -3.4595     1.1380    -0.7987 C
17 C17    -2.7162    -0.0941    -0.8508 C
18 N18    -1.3621     0.2155    -0.8183 N
19 C19    -2.4705    -2.5135    -1.2329 C
20 C20    -2.7921    -3.8835    -1.5294 C
21 C21    -1.5981    -4.5596    -1.7344 C
22 C22    -0.5454    -3.6197    -1.5374 C
23 N23    -1.1009    -2.4035    -1.2424 N
24 C24    -4.7468    -1.5461    -0.9475 C
25 C25    -5.4523    -2.1413    -2.0053 C
26 C26    -6.8325    -2.3055    -1.9420 C
27 C27    -7.5677    -1.8745    -0.8245 C
28 C28    -6.8575    -1.2759     0.2306 C
29 C29    -5.4765    -1.1181     0.1731 C
30 C30    -0.0722     3.7695    -0.5348 C
31 C31    -0.6175     4.3575     0.6162 C
32 C32    -0.6657     5.7410     0.7603 C
33 C33    -0.1693     6.5927    -0.2408 C
34 C34     0.3792     6.0006    -1.3909 C
35 C35     0.4262     4.6168    -1.5355 C
36 C36     4.9265    -1.2818    -0.8926 C
37 C37     5.7599    -0.5863    -1.7830 C
38 C38     7.1436    -0.7185    -1.7198 C
39 C39     7.7535    -1.5564    -0.7705 C
40 C40     6.9166    -2.2537     0.1171 C
41 C41     5.5332    -2.1192     0.0574 C
42 H42    -3.7899    -4.2937    -1.5946 H
43 H43    -1.4758    -5.6043    -1.9893 H
44 H44     1.9302    -5.5085    -1.9208 H
45 H45     4.1519    -4.0447    -1.5207 H
46 H46    -4.5363     1.2102    -0.8468 H
47 H47    -2.7758     3.2283    -0.7090 H
48 H48     2.6661     3.3876    -0.5619 H
49 H49     4.5477     1.4862    -0.6641 H
50 Co50     0.0772    -1.0151    -0.7628 Co
51 P51    -0.0100    -1.5422     1.3903 P
52 C52     0.3588    -3.3164     1.6180 C
53 C53     1.6609    -3.7156     1.9587 C
54 C54    -0.6040    -4.2959     1.3367 C
55 C55     1.9807    -5.0680     2.0495 C
56 H56     2.4248    -2.9706     2.1495 H
57 C57    -0.2841    -5.6491     1.4488 C
58 H58    -1.5985    -4.0115     1.0150 H
59 C59     1.0058    -6.0385     1.8070 C
60 H60     2.9934    -5.3627     2.3088 H
61 H61    -1.0438    -6.3949     1.2341 H
62 H62     1.2559    -7.0929     1.8842 H
63 C63    -1.6207    -1.2087     2.2163 C
64 C64    -2.3259    -2.1634     2.9607 C
65 C65    -2.0817     0.1167     2.2016 C
66 C66    -3.4846    -1.8033     3.6517 C
67 H67    -1.9738    -3.1848     3.0213 H
68 C68    -3.2332     0.4745     2.8976 C
69 H69    -1.5393     0.8737     1.6487 H
70 C70    -3.9435    -0.4868     3.6207 C
71 H71    -4.0227    -2.5572     4.2191 H
72 H72    -3.5780     1.5036     2.8633 H
73 H73    -4.8453    -0.2099     4.1594 H
74 C74     1.1104    -0.7287     2.6026 C
75 C75     1.1300    -1.2365     3.9152 C
76 C76     1.8692     0.4026     2.2996 C
77 C77     1.9174    -0.6325     4.8902 C
78 H78     0.5303    -2.1036     4.1726 H
79 C79     2.6564     1.0090     3.2818 C
80 H80     1.8468     0.8203     1.3086 H
81 C81     2.6874     0.4921     4.5744 C
82 H82     1.9281    -1.0370     5.8984 H
83 H83     3.2434     1.8851     3.0222 H
84 H84     3.3020     0.9618     5.3372 H
85 H85     5.3144     0.0562    -2.5359 H
86 H86     7.3547    -2.9272     0.8479 H
87 H87     4.9062    -2.6704     0.7515 H
88 H88    -4.9109    -2.4699    -2.8867 H
89 H89    -7.3962    -0.9126     1.1010 H
90 H90    -4.9493    -0.6615     1.0038 H
91 H91    -7.3470    -2.7900    -2.7666 H
92 H92     7.7629    -0.1524    -2.4092 H
93 H93     0.8556     4.1811    -2.4328 H
94 H94     0.7910     6.6325    -2.1723 H
95 H95    -1.1132     6.1688     1.6527 H
96 H96    -1.0085     3.7195     1.4034 H
97 C97    -0.2227     8.0644    -0.0886 C
98 C98    -0.4790     8.9003    -1.1836 C
99 C99    -0.0120     8.6754     1.1621 C
100 C100    -0.5276    10.2889    -1.0534 C
101 H101    -0.6707     8.4598    -2.1576 H
102 C102    -0.0558    10.0542     1.3081 C
103 H103     0.2137     8.0590     2.0273 H
104 C104    -0.3143    10.8747     0.1999 C
105 H105    -0.7395    10.8963    -1.9255 H
106 H106     0.1177    10.5226     2.2719 H
107 C107    -9.0374    -2.0426    -0.7638 C
108 C108    -9.8282    -1.9623    -1.9184 C
109 C109    -9.6951    -2.2950     0.4556 C
110 C110   -11.2131    -2.1259    -1.8765 C
111 H111    -9.3596    -1.7413    -2.8727 H
112 C112   -11.0715    -2.4570     0.5153 C
113 H113    -9.1132    -2.3917     1.3674 H
114 C114   -11.8447    -2.3755    -0.6524 C
115 H115   -11.7842    -2.0464    -2.7942 H
116 H116   -11.5717    -2.6618     1.4568 H
117 C117     9.2250    -1.7071    -0.7132 C
118 C118    10.0045    -1.6842    -1.8778 C
119 C119     9.8938    -1.8878     0.5125 C
120 C120    11.3912    -1.8331    -1.8388 C
121 H121     9.5192    -1.5743    -2.8431 H
122 C122    11.2718    -2.0374     0.5688 C
123 H123     9.3254    -1.8854     1.4379 H
124 C124    12.0345    -2.0123    -0.6085 C
125 H125    11.9521    -1.8198    -2.7660 H
126 H126    11.7835    -2.1662     1.5175 H
127 O127   -13.1859    -2.5501    -0.4942 O
128 O128    -0.3370    12.2140     0.4439 O
129 O129    13.3781    -2.1683    -0.4525 O
130 C130   -14.0008    -2.5233    -1.6577 C
131 H131   -15.0229    -2.6931    -1.3134 H
132 H132   -13.9495    -1.5518    -2.1659 H
133 H133   -13.7211    -3.3167    -2.3631 H
134 C134    -0.5912    13.0872    -0.6474 C
135 H135    -1.5793    12.9051    -1.0894 H
136 H136    -0.5639    14.0982    -0.2361 H
137 H137     0.1769    12.9957    -1.4265 H
138 C138    14.1889    -2.1564    -1.6191 C
139 H139    15.2159    -2.2888    -1.2726 H
140 H140    13.9297    -2.9783    -2.2993 H
141 H141    14.1107    -1.2021    -2.1558 H
@<TRIPOS>BOND
1 1 7 Ar
2 1 9 Ar
3 1 36 1
4 2 12 Ar
5 2 14 Ar
6 2 30 1
7 3 17 Ar
8 3 19 Ar
9 3 24 1
10 4 5 Ar
11 4 8 Ar
12 4 22 Ar
13 5 6 2
14 5 44 1
15 6 7 Ar
16 6 45 1
17 7 8 Ar
18 8 50 1
19 9 10 Ar
20 9 13 1
21 10 11 2
22 10 49 1
23 11 12 Ar
24 11 48 1
25 12 13 1
26 13 50 1
27 14 15 Ar
28 14 18 1
29 15 16 2
30 15 47 1
31 16 17 Ar
32 16 46 1
33 17 18 1
34 18 50 1
35 19 20 Ar
36 19 23 Ar
37 20 21 Ar
38 20 42 1
39 21 22 Ar
40 21 43 1
41 22 23 Ar
42 23 50 1
43 24 25 Ar
44 24 29 Ar
45 25 26 Ar
46 25 88 1
47 26 27 Ar
48 26 91 1
49 27 28 Ar
50 27 107 1
51 28 29 Ar
52 28 89 1
53 29 90 1
54 30 31 Ar
55 30 35 Ar
56 31 32 Ar
57 31 96 1
58 32 33 Ar
59 32 95 1
60 33 34 Ar
61 33 97 1
62 34 35 Ar
63 34 94 1
64 35 93 1
65 36 37 Ar
66 36 41 Ar
67 37 38 Ar
68 37 85 1
69 38 39 Ar
70 38 92 1
71 39 40 Ar
72 39 117 1
73 40 41 Ar
74 40 86 1
75 41 87 1
76 50 51 1
77 51 52 1
78 51 63 1
79 51 74 1
80 52 53 Ar
81 52 54 Ar
82 53 55 Ar
83 53 56 1
84 54 57 Ar
85 54 58 1
86 55 59 Ar
87 55 60 1
88 57 59 Ar
89 57 61 1
90 59 62 1
91 63 64 Ar
92 63 65 Ar
93 64 66 Ar
94 64 67 1
95 65 68 Ar
96 65 69 1
97 66 70 Ar
98 66 71 1
99 68 70 Ar
100 68 72 1
101 70 73 1
102 74 75 Ar
103 74 76 Ar
104 75 77 Ar
105 75 78 1
106 76 79 Ar
107 76 80 1
108 77 81 Ar
109 77 82 1
110 79 81 Ar
111 79 83 1
112 81 84 1
113 97 98 Ar
114 97 99 Ar
115 98 100 Ar
116 98 101 1
117 99 102 Ar
118 99 103 1
119 100 104 Ar
120 100 105 1
121 102 104 Ar
122 102 106 1
123 104 128 1
124 107 108 Ar
125 107 109 Ar
126 108 110 Ar
127 108 111 1
128 109 112 Ar
129 109 113 1
130 110 114 Ar
131 110 115 1
132 112 114 Ar
133 112 116 1
134 114 127 1
135 117 118 Ar
136 117 119 Ar
137 118 120 Ar
138 118 121 1
139 119 122 Ar
140 119 123 1
141 120 124 Ar
142 120 125 1
143 122 124 Ar
144 122 126 1
145 124 129 1
146 127 130 1
147 128 134 1
148 129 138 1
149 130 131 1
150 130 132 1
151 130 133 1
152 134 135 1
153 134 136 1
154 134 137 1
155 138 139 1
156 138 140 1
157 138 141 1
