# PPh3_3Ph_3Ph2_3OCH3
# Created by GaussView 6.0.16
#

#
#

@<TRIPOS>MOLECULE
Molecule Name
141 157
SMALL
NO_CHARGES


@<TRIPOS>ATOM
1 C1    -2.3621    -2.3579     0.7395 C
2 C2    -0.7924     1.8169    -1.3256 C
3 C3     3.7177     0.4068     0.0118 C
4 C4     0.9676    -2.9439     1.8660 C
5 C5     0.3522    -4.0577     2.5088 C
6 C6    -0.9898    -4.0354     2.1630 C
7 C7    -1.1966    -2.9035     1.3007 C
8 N8     0.0135    -2.2769     1.1471 N
9 C9    -2.3554    -1.1180     0.0631 C
10 C10    -3.4978    -0.4549    -0.5065 C
11 C11    -3.0712     0.7248    -1.0579 C
12 C12    -1.6494     0.8061    -0.8562 C
13 N13    -1.2307    -0.3294    -0.1788 N
14 C14     0.6012     1.8124    -1.1501 C
15 C15     1.5234     2.8430    -1.5521 C
16 C16     2.7794     2.4277    -1.1990 C
17 C17     2.6583     1.1423    -0.5624 C
18 N18     1.3133     0.7951    -0.5382 N
19 C19     3.4908    -0.7477     0.7764 C
20 C20     4.3681    -1.5805     1.5544 C
21 C21     3.5905    -2.5563     2.1605 C
22 C22     2.2457    -2.3437     1.7383 C
23 N23     2.2193    -1.2502     0.9153 N
24 C24     5.1140     0.8794    -0.1781 C
25 C25     5.9193     1.1875     0.9253 C
26 C26     7.2513     1.6029     0.7717 C
27 C27     7.7692     1.7058    -0.5304 C
28 C28     6.9767     1.4004    -1.6357 C
29 C29     5.6548     0.9910    -1.4682 C
30 C30    -1.3981     2.9566    -2.0721 C
31 C31    -1.0677     3.1812    -3.4172 C
32 C32    -1.6505     4.2386    -4.1143 C
33 C33    -2.5641     5.0812    -3.4841 C
34 C34    -2.9151     4.8776    -2.1389 C
35 C35    -2.3200     3.8083    -1.4516 C
36 C36    -3.6363    -3.1036     0.9093 C
37 C37    -4.7483    -2.5100     1.5210 C
38 C38    -5.9546    -3.2049     1.6949 C
39 C39    -6.0296    -4.5321     1.2397 C
40 C40    -4.9297    -5.1366     0.6342 C
41 C41    -3.7378    -4.4328     0.4683 C
42 H42     5.4357    -1.4448     1.6557 H
43 H43     3.9292    -3.3390     2.8268 H
44 H44     0.8472    -4.7679     3.1582 H
45 H45    -1.7602    -4.7169     2.4959 H
46 H46     3.7082     2.9651    -1.3270 H
47 H47     1.2459     3.7755    -2.0217 H
48 H48    -3.6706     1.4645    -1.5679 H
49 H49    -4.5078    -0.8375    -0.4915 H
50 Co50     0.5831    -0.8397     0.0810 Co
51 P51     1.0455    -2.1131    -1.6792 P
52 C52     1.5406    -3.7824    -1.1284 C
53 C53     0.5852    -4.8098    -1.0823 C
54 C54     2.8280    -4.0239    -0.6294 C
55 C55     0.9251    -6.0634    -0.5801 C
56 H56    -0.4240    -4.6296    -1.4343 H
57 C57     3.1690    -5.2869    -0.1449 C
58 H58     3.5625    -3.2280    -0.5988 H
59 C59     2.2211    -6.3091    -0.1208 C
60 H60     0.1743    -6.8475    -0.5449 H
61 H61     4.1725    -5.4584     0.2331 H
62 H62     2.4858    -7.2894     0.2653 H
63 C63     2.3784    -1.4872    -2.7850 C
64 C64     3.4651    -2.2649    -3.2067 C
65 C65     2.2029    -0.2095    -3.3387 C
66 C66     4.3715    -1.7617    -4.1418 C
67 H67     3.6056    -3.2683    -2.8261 H
68 C68     3.1039     0.2865    -4.2772 C
69 H69     1.3591     0.4005    -3.0407 H
70 C70     4.1965    -0.4862    -4.6780 C
71 H71     5.2121    -2.3754    -4.4528 H
72 H72     2.9554     1.2823    -4.6841 H
73 H73     4.9035    -0.0977    -5.4055 H
74 C74    -0.2410    -2.4573    -2.9504 C
75 C75     0.0298    -3.4521    -3.9085 C
76 C76    -1.4171    -1.7138    -3.0566 C
77 C77    -0.8790    -3.7091    -4.9303 C
78 H78     0.9492    -4.0255    -3.8535 H
79 C79    -2.3267    -1.9726    -4.0849 C
80 H80    -1.6272    -0.9286    -2.3521 H
81 C81    -2.0647    -2.9721    -5.0186 C
82 H82    -0.6612    -4.4835    -5.6604 H
83 H83    -3.2393    -1.3868    -4.1426 H
84 H84    -2.7739    -3.1758    -5.8160 H
85 H85    -4.6719    -1.4828     1.8607 H
86 H86    -5.0008    -6.1658     0.2925 H
87 H87    -2.8836    -4.9018    -0.0097 H
88 H88     5.5004     1.0868     1.9211 H
89 H89     7.3913     1.4865    -2.6367 H
90 H90     5.0399     0.7423    -2.3259 H
91 H91    -0.3625     2.5196    -3.9113 H
92 H92    -1.3882     4.4097    -5.1549 H
93 H93    -2.5913     3.6197    -0.4178 H
94 H94     8.7888     2.0504    -0.6755 H
95 H95    -2.9911     5.9179    -4.0287 H
96 H96    -6.9440    -5.0992     1.3862 H
97 C97    -7.1146    -2.5514     2.3451 C
98 C98    -6.9418    -1.6349     3.3908 C
99 C99    -8.4318    -2.8253     1.9313 C
100 C100    -8.0259    -1.0085     4.0066 C
101 H101    -5.9408    -1.4189     3.7521 H
102 C102    -9.5207    -2.2128     2.5344 C
103 H103    -8.6020    -3.5106     1.1062 H
104 C104    -9.3273    -1.2965     3.5789 C
105 H105    -7.8450    -0.3127     4.8173 H
106 H106   -10.5342    -2.4192     2.2045 H
107 C107    -3.8872     5.7662    -1.4604 C
108 C108    -4.9947     6.2937    -2.1505 C
109 C109    -3.7409     6.1102    -0.1100 C
110 C110    -5.9095     7.1247    -1.5202 C
111 H111    -5.1533     6.0266    -3.1912 H
112 C112    -4.6520     6.9446     0.5388 C
113 H113    -2.8845     5.7404     0.4460 H
114 C114    -5.7461     7.4579    -0.1674 C
115 H115    -6.7681     7.5210    -2.0533 H
116 H116    -4.4943     7.1924     1.5818 H
117 C117     8.0823     1.9244     1.9558 C
118 C118     9.4521     1.6317     1.9859 C
119 C119     7.5216     2.5310     3.0959 C
120 C120    10.2430     1.9247     3.0980 C
121 H121     9.9126     1.1399     1.1340 H
122 C122     8.2936     2.8289     4.2091 C
123 H123     6.4682     2.7944     3.0982 H
124 C124     9.6636     2.5274     4.2206 C
125 H125    11.2964     1.6705     3.0820 H
126 H126     7.8580     3.3051     5.0819 H
127 O127    10.3371     2.8565     5.3573 O
128 O128    -6.6947     8.2780     0.3633 O
129 O129   -10.4558    -0.7463     4.1062 O
130 C130   -10.3057     0.2151     5.1411 C
131 H131    -9.7320     1.0871     4.8014 H
132 H132   -11.3165     0.5316     5.4061 H
133 H133    -9.8209    -0.2158     6.0269 H
134 C134    -6.5724     8.6373     1.7322 C
135 H135    -7.4247     9.2839     1.9506 H
136 H136    -6.6114     7.7565     2.3862 H
137 H137    -5.6434     9.1902     1.9228 H
138 C138    11.7253     2.5625     5.4166 C
139 H139    12.0636     2.9036     6.3973 H
140 H140    11.9137     1.4848     5.3256 H
141 H141    12.2853     3.0956     4.6373 H
@<TRIPOS>BOND
1 1 7 Ar
2 1 9 Ar
3 1 36 1
4 2 12 Ar
5 2 14 Ar
6 2 30 1
7 3 17 Ar
8 3 19 Ar
9 3 24 1
10 4 5 Ar
11 4 8 Ar
12 4 22 Ar
13 5 6 2
14 5 44 1
15 6 7 Ar
16 6 45 1
17 7 8 Ar
18 8 50 1
19 9 10 Ar
20 9 13 1
21 10 11 2
22 10 49 1
23 11 12 Ar
24 11 48 1
25 12 13 1
26 13 50 1
27 14 15 Ar
28 14 18 1
29 15 16 2
30 15 47 1
31 16 17 Ar
32 16 46 1
33 17 18 1
34 18 50 1
35 19 20 Ar
36 19 23 Ar
37 20 21 Ar
38 20 42 1
39 21 22 Ar
40 21 43 1
41 22 23 Ar
42 23 50 1
43 24 25 Ar
44 24 29 Ar
45 25 26 Ar
46 25 88 1
47 26 27 Ar
48 26 117 1
49 27 28 Ar
50 27 94 1
51 28 29 Ar
52 28 89 1
53 29 90 1
54 30 31 Ar
55 30 35 Ar
56 31 32 Ar
57 31 91 1
58 32 33 Ar
59 32 92 1
60 33 34 Ar
61 33 95 1
62 34 35 Ar
63 34 107 1
64 35 93 1
65 36 37 Ar
66 36 41 Ar
67 37 38 Ar
68 37 85 1
69 38 39 Ar
70 38 97 1
71 39 40 Ar
72 39 96 1
73 40 41 Ar
74 40 86 1
75 41 87 1
76 50 51 1
77 51 52 1
78 51 63 1
79 51 74 1
80 52 53 Ar
81 52 54 Ar
82 53 55 Ar
83 53 56 1
84 54 57 Ar
85 54 58 1
86 55 59 Ar
87 55 60 1
88 57 59 Ar
89 57 61 1
90 59 62 1
91 63 64 Ar
92 63 65 Ar
93 64 66 Ar
94 64 67 1
95 65 68 Ar
96 65 69 1
97 66 70 Ar
98 66 71 1
99 68 70 Ar
100 68 72 1
101 70 73 1
102 74 75 Ar
103 74 76 Ar
104 75 77 Ar
105 75 78 1
106 76 79 Ar
107 76 80 1
108 77 81 Ar
109 77 82 1
110 79 81 Ar
111 79 83 1
112 81 84 1
113 97 98 Ar
114 97 99 Ar
115 98 100 Ar
116 98 101 1
117 99 102 Ar
118 99 103 1
119 100 104 Ar
120 100 105 1
121 102 104 Ar
122 102 106 1
123 104 129 1
124 107 108 Ar
125 107 109 Ar
126 108 110 Ar
127 108 111 1
128 109 112 Ar
129 109 113 1
130 110 114 Ar
131 110 115 1
132 112 114 Ar
133 112 116 1
134 114 128 1
135 117 118 Ar
136 117 119 Ar
137 118 120 Ar
138 118 121 1
139 119 122 Ar
140 119 123 1
141 120 124 Ar
142 120 125 1
143 122 124 Ar
144 122 126 1
145 124 127 1
146 127 138 1
147 128 134 1
148 129 130 1
149 130 131 1
150 130 132 1
151 130 133 1
152 134 135 1
153 134 136 1
154 134 137 1
155 138 139 1
156 138 140 1
157 138 141 1
