# PPh3_3Ph_3S_TD
# Created by GaussView 6.0.16
#

#
#

@<TRIPOS>MOLECULE
Molecule Name
120 136
SMALL
NO_CHARGES


@<TRIPOS>ATOM
1 C1     3.4082    -1.0154    -1.0299 C
2 C2     0.0047     2.5204    -0.7179 C
3 C3    -3.3107    -1.0870    -1.0966 C
4 C4     0.7888    -3.3543    -1.6266 C
5 C5     1.8838    -4.2488    -1.8077 C
6 C6     3.0421    -3.5236    -1.5774 C
7 C7     2.6533    -2.1780    -1.2513 C
8 N8     1.2838    -2.1247    -1.2889 N
9 C9     2.8032     0.2552    -0.9079 C
10 C10     3.4883     1.5056    -0.7263 C
11 C11     2.5465     2.4991    -0.6616 C
12 C12     1.2550     1.8786    -0.7870 C
13 N13     1.4317     0.5098    -0.9256 N
14 C14    -1.2279     1.8485    -0.7858 C
15 C15    -2.5369     2.4488    -0.7879 C
16 C16    -3.4522     1.4340    -0.8665 C
17 C17    -2.7306     0.1903    -0.9281 C
18 N18    -1.3713     0.4751    -0.8873 N
19 C19    -2.5313    -2.2264    -1.3505 C
20 C20    -2.8791    -3.5837    -1.6744 C
21 C21    -1.6981    -4.2784    -1.8910 C
22 C22    -0.6277    -3.3630    -1.6736 C
23 N23    -1.1600    -2.1422    -1.3562 N
24 C24    -4.7867    -1.2253    -1.0291 C
25 C25    -5.5186    -1.7805    -2.0910 C
26 C26    -6.8978    -1.9390    -2.0021 C
27 C27    -7.6008    -1.5427    -0.8520 C
28 C28    -6.8666    -0.9822     0.2065 C
29 C29    -5.4868    -0.8270     0.1205 C
30 C30    -0.0126     4.0010    -0.5610 C
31 C31    -0.6282     4.6033     0.5469 C
32 C32    -0.6425     5.9867     0.6968 C
33 C33    -0.0398     6.8244    -0.2560 C
34 C34     0.5711     6.2211    -1.3683 C
35 C35     0.5868     4.8381    -1.5157 C
36 C36     4.8851    -1.1436    -0.9624 C
37 C37     5.7322    -0.4306    -1.8254 C
38 C38     7.1139    -0.5796    -1.7572 C
39 C39     7.7047    -1.4481    -0.8241 C
40 C40     6.8558    -2.1625     0.0379 C
41 C41     5.4748    -2.0180    -0.0343 C
42 H42    -3.8847    -3.9726    -1.7502 H
43 H43    -1.5953    -5.3200    -2.1662 H
44 H44     1.8117    -5.2907    -2.0911 H
45 H45     4.0602    -3.8784    -1.6564 H
46 H46    -4.5274     1.5258    -0.9189 H
47 H47    -2.7338     3.5105    -0.7636 H
48 H48     2.7195     3.5566    -0.5260 H
49 H49     4.5598     1.6198    -0.6520 H
50 Co50     0.0428    -0.7856    -0.8478 Co
51 P51    -0.0593    -1.3542     1.2950 P
52 C52     0.2597    -3.1425     1.4832 C
53 C53     1.5525    -3.5868     1.8033 C
54 C54    -0.7335    -4.0873     1.1902 C
55 C55     1.8331    -4.9494     1.8621 C
56 H56     2.3395    -2.8689     2.0034 H
57 C57    -0.4528    -5.4514     1.2706 C
58 H58    -1.7216    -3.7670     0.8826 H
59 C59     0.8283    -5.8859     1.6079 C
60 H60     2.8390    -5.2786     2.1057 H
61 H61    -1.2358    -6.1697     1.0463 H
62 H62     1.0483    -6.9484     1.6601 H
63 C63    -1.6595    -0.9926     2.1295 C
64 C64    -2.3808    -1.9384     2.8699 C
65 C65    -2.0902     0.3431     2.1311 C
66 C66    -3.5248    -1.5585     3.5746 C
67 H67    -2.0520    -2.9684     2.9174 H
68 C68    -3.2271     0.7204     2.8408 C
69 H69    -1.5349     1.0927     1.5809 H
70 C70    -3.9529    -0.2313     3.5611 C
71 H71    -4.0754    -2.3054     4.1393 H
72 H72    -3.5483     1.7575     2.8200 H
73 H73    -4.8428     0.0611     4.1112 H
74 C74     1.0845    -0.5991     2.5230 C
75 C75     1.1125    -1.1535     3.8164 C
76 C76     1.8499     0.5361     2.2529 C
77 C77     1.9173    -0.5935     4.8035 C
78 H78     0.5071    -2.0236     4.0494 H
79 C79     2.6548     1.0981     3.2471 C
80 H80     1.8194     0.9914     1.2786 H
81 C81     2.6956     0.5337     4.5195 C
82 H82     1.9349    -1.0344     5.7961 H
83 H83     3.2476     1.9773     3.0128 H
84 H84     3.3246     0.9687     5.2911 H
85 H85     5.2980     0.2275    -2.5713 H
86 H86     7.2869    -2.8168     0.7901 H
87 H87     4.8368    -2.5707     0.6484 H
88 H88    -4.9979    -2.0848    -2.9933 H
89 H89    -7.3837    -0.6525     1.1029 H
90 H90    -4.9369    -0.4023     0.9531 H
91 H91    -7.4371    -2.3923    -2.8288 H
92 H92     7.7417    -0.0378    -2.4583 H
93 H93     1.0505     4.3948    -2.3916 H
94 H94     1.0112     6.8450    -2.1409 H
95 H95    -1.1020     6.4214     1.5796 H
96 H96    -1.0874     3.9765     1.3054 H
97 C97     9.1689    -1.6068    -0.7586 C
98 C98     9.8101    -2.7515    -0.3435 C
99 C99    10.1114    -0.5816    -1.1248 C
100 H100     9.3639    -3.6912    -0.0474 H
101 H101     9.8177     0.4087    -1.4535 H
102 C102    11.4124    -0.9654    -0.9788 C
103 S103    11.5347    -2.5967    -0.3936 S
104 H104    12.3067    -0.3853    -1.1642 H
105 C105    -0.0503     8.2894    -0.0884 C
106 C106     0.9262     9.1350    -0.5626 C
107 C107    -1.0870     9.0178     0.5958 C
108 H108     1.8382     8.8700    -1.0803 H
109 S109     0.6007    10.7947    -0.1880 S
110 H110    -1.9654     8.5468     1.0222 H
111 C111    -0.8764    10.3654     0.6192 C
112 H112    -1.5057    11.1343     1.0476 H
113 C113    -9.0635    -1.7049    -0.7554 C
114 C114    -9.9237    -1.6698    -1.8289 C
115 C115    -9.7739    -1.9243     0.4780 C
116 H116    -9.6812    -1.4845    -2.8665 H
117 S117   -11.5754    -1.8978    -1.3590 S
118 H118    -9.2844    -2.0126     1.4413 H
119 C119   -11.1222    -2.0490     0.3112 C
120 H120   -11.8761    -2.2359     1.0644 H
@<TRIPOS>BOND
1 1 7 Ar
2 1 9 Ar
3 1 36 1
4 2 12 Ar
5 2 14 Ar
6 2 30 1
7 3 17 Ar
8 3 19 Ar
9 3 24 1
10 4 5 Ar
11 4 8 Ar
12 4 22 Ar
13 5 6 2
14 5 44 1
15 6 7 Ar
16 6 45 1
17 7 8 Ar
18 8 50 1
19 9 10 Ar
20 9 13 1
21 10 11 2
22 10 49 1
23 11 12 Ar
24 11 48 1
25 12 13 1
26 13 50 1
27 14 15 Ar
28 14 18 1
29 15 16 2
30 15 47 1
31 16 17 Ar
32 16 46 1
33 17 18 1
34 18 50 1
35 19 20 Ar
36 19 23 Ar
37 20 21 Ar
38 20 42 1
39 21 22 Ar
40 21 43 1
41 22 23 Ar
42 23 50 1
43 24 25 Ar
44 24 29 Ar
45 25 26 Ar
46 25 88 1
47 26 27 Ar
48 26 91 1
49 27 28 Ar
50 27 113 1
51 28 29 Ar
52 28 89 1
53 29 90 1
54 30 31 Ar
55 30 35 Ar
56 31 32 Ar
57 31 96 1
58 32 33 Ar
59 32 95 1
60 33 34 Ar
61 33 105 1
62 34 35 Ar
63 34 94 1
64 35 93 1
65 36 37 Ar
66 36 41 Ar
67 37 38 Ar
68 37 85 1
69 38 39 Ar
70 38 92 1
71 39 40 Ar
72 39 97 1
73 40 41 Ar
74 40 86 1
75 41 87 1
76 50 51 1
77 51 52 1
78 51 63 1
79 51 74 1
80 52 53 Ar
81 52 54 Ar
82 53 55 Ar
83 53 56 1
84 54 57 Ar
85 54 58 1
86 55 59 Ar
87 55 60 1
88 57 59 Ar
89 57 61 1
90 59 62 1
91 63 64 Ar
92 63 65 Ar
93 64 66 Ar
94 64 67 1
95 65 68 Ar
96 65 69 1
97 66 70 Ar
98 66 71 1
99 68 70 Ar
100 68 72 1
101 70 73 1
102 74 75 Ar
103 74 76 Ar
104 75 77 Ar
105 75 78 1
106 76 79 Ar
107 76 80 1
108 77 81 Ar
109 77 82 1
110 79 81 Ar
111 79 83 1
112 81 84 1
113 97 98 2
114 97 99 Ar
115 98 100 1
116 98 103 1
117 99 101 1
118 99 102 2
119 102 103 1
120 102 104 1
121 105 106 2
122 105 107 Ar
123 106 108 1
124 106 109 1
125 107 110 1
126 107 111 2
127 109 111 1
128 111 112 1
129 113 114 2
130 113 115 Ar
131 114 116 1
132 114 117 1
133 115 118 1
134 115 119 2
135 117 119 1
136 119 120 1
