# 150e_N_C2_TD
# Created by GaussView 6.0.16
#

#
#

@<TRIPOS>MOLECULE
Molecule Name
75 82
SMALL
NO_CHARGES


@<TRIPOS>ATOM
1 C1     3.1121    -1.0816    -0.1312 C
2 C2    -0.5399     2.2214    -0.0371 C
3 C3    -3.7220    -1.5023    -0.0668 C
4 C4     0.5251    -3.5982    -0.2919 C
5 C5     1.5909    -4.4265     0.1168 C
6 C6     2.7458    -3.6428     0.1927 C
7 C7     2.4089    -2.3106    -0.1578 C
8 N8     1.0622    -2.3356    -0.4669 N
9 C9     2.4585     0.1608    -0.1483 C
10 C10     3.0222     1.4719    -0.2787 C
11 C11     2.0049     2.3950    -0.2599 C
12 C12     0.7603     1.7004    -0.1073 C
13 N13     1.0791     0.3587    -0.0667 N
14 C14    -1.7458     1.4729     0.0042 C
15 C15    -3.0771     2.0605     0.0829 C
16 C16    -3.9654     1.0297     0.0748 C
17 C17    -3.1896    -0.1954    -0.0041 C
18 N18    -1.8418     0.1144    -0.0397 N
19 C19    -2.9046    -2.6463    -0.2220 C
20 C20    -3.1243    -4.0553    -0.1696 C
21 C21    -1.8838    -4.6846    -0.2226 C
22 C22    -0.8888    -3.6740    -0.3180 C
23 N23    -1.5564    -2.4811    -0.3518 N
24 C24     4.5962    -1.1103    -0.0614 C
25 C25     5.2802    -1.6159     1.0441 C
26 C26     6.6674    -1.6962     1.0958 C
27 C27     6.7858    -0.6749    -1.0435 C
28 C28     5.4021    -0.6540    -1.1097 C
29 H29     1.5003    -5.4656     0.4025 H
30 H30     3.7133    -3.9692     0.5443 H
31 H31     0.6607    -1.6643    -1.1091 H
32 H32     4.0749     1.6770    -0.4047 H
33 H33     2.1031     3.4652    -0.3706 H
34 H34     0.4176    -0.3062     0.3103 H
35 H35    -3.3021     3.1160     0.1435 H
36 H36    -5.0443     1.0957     0.1011 H
37 H37    -4.0875    -4.5379    -0.0816 H
38 H38    -1.6949    -5.7492    -0.2035 H
39 H39    -1.1909    -1.5260    -0.2572 H
40 F40     4.8323    -0.1308    -2.2112 F
41 F41     7.4801    -0.1614    -2.0788 F
42 F42     4.5898    -2.0975     2.0950 F
43 F43     7.2150    -2.2688     2.1889 F
44 C44     7.4826    -1.2114     0.0580 C
45 N45     8.8752    -1.1911     0.0769 N
46 C46     9.5833    -1.1880     1.3497 C
47 H47    10.5750    -0.7535     1.1818 H
48 C48     9.5813    -1.8976    -0.9889 C
49 H49     9.0712    -1.7628    -1.9422 H
50 H50    10.5920    -1.4866    -1.0807 H
51 H51     9.6631    -2.9769    -0.7807 H
52 H52     9.7158    -2.1910     1.7807 H
53 H53     9.0560    -0.5624     2.0718 H
54 C54    -0.6446     3.7074    -0.0247 C
55 C55    -0.1459     4.4677     1.0379 C
56 C56    -1.2349     4.4129    -1.0781 C
57 C57    -0.2281     5.8562     1.0589 C
58 C58    -1.3402     5.7997    -1.0742 C
59 C59    -0.8314     6.5247    -0.0013 C
60 C60    -5.1851    -1.7091     0.0555 C
61 C61    -5.9162    -2.3535    -0.9495 C
62 C62    -5.9014    -1.2997     1.1864 C
63 C63    -7.2851    -2.5744    -0.8454 C
64 C64    -7.2722    -1.5006     1.3071 C
65 C65    -7.9672    -2.1433     0.2877 C
66 F66    -7.9511    -3.1869    -1.8326 F
67 F67    -9.2836    -2.3459     0.3966 F
68 F68    -5.3010    -2.7733    -2.0652 F
69 F69    -5.2697    -0.7011     2.2063 F
70 F70    -7.9231    -1.0952     2.4049 F
71 F71    -1.7230     3.7530    -2.1383 F
72 F72    -1.9125     6.4414    -2.1010 F
73 F73    -0.9199     7.8584     0.0095 F
74 F74     0.2597     6.5506     2.0950 F
75 F75     0.4364     3.8613     2.0830 F
@<TRIPOS>BOND
1 1 7 Ar
2 1 9 Ar
3 1 24 1
4 2 12 Ar
5 2 14 Ar
6 2 54 1
7 3 17 Ar
8 3 19 Ar
9 3 60 1
10 4 5 Ar
11 4 8 1
12 4 22 Ar
13 5 6 Ar
14 5 29 1
15 6 7 Ar
16 6 30 1
17 7 8 1
18 8 31 1
19 9 10 Ar
20 9 13 1
21 10 11 2
22 10 32 1
23 11 12 Ar
24 11 33 1
25 12 13 Ar
26 13 34 1
27 14 15 1
28 14 18 Ar
29 15 16 2
30 15 35 1
31 16 17 1
32 16 36 1
33 17 18 1
34 19 20 Ar
35 19 23 Ar
36 20 21 Ar
37 20 37 1
38 21 22 Ar
39 21 38 1
40 22 23 Ar
41 23 39 1
42 24 25 Ar
43 24 28 Ar
44 25 26 Ar
45 25 42 1
46 26 43 1
47 26 44 Ar
48 27 28 2
49 27 41 1
50 27 44 Ar
51 28 40 1
52 44 45 1
53 45 46 1
54 45 48 1
55 46 47 1
56 46 52 1
57 46 53 1
58 48 49 1
59 48 50 1
60 48 51 1
61 54 55 Ar
62 54 56 Ar
63 55 57 Ar
64 55 75 1
65 56 58 Ar
66 56 71 1
67 57 59 Ar
68 57 74 1
69 58 59 Ar
70 58 72 1
71 59 73 1
72 60 61 Ar
73 60 62 Ar
74 61 63 Ar
75 61 68 1
76 62 64 Ar
77 62 69 1
78 63 65 Ar
79 63 66 1
80 64 65 Ar
81 64 70 1
82 65 67 1
