@<TRIPOS>MOLECULE
F4P_N3_TD
 77 87 0 0 0
SMALL
GASTEIGER

@<TRIPOS>ATOM
      1 C           2.3616   -3.1255   -0.0451 C.3     1  UNL1        0.0971
      2 C          -1.6283   -0.2757    0.0650 C.3     1  UNL1        0.1028
      3 C           1.4854    3.5188    0.1668 C.3     1  UNL1        0.0971
      4 C           4.3016   -0.1798   -0.5656 C.ar    1  UNL1        0.0768
      5 C           5.3593   -1.1157   -0.6304 C.ar    1  UNL1       -0.0340
      6 C           4.7946   -2.3679   -0.4411 C.ar    1  UNL1       -0.0385
      7 C           3.3859   -2.1975   -0.2773 C.ar    1  UNL1        0.0482
      8 N           3.1249   -0.8538   -0.3694 N.ar    1  UNL1       -0.2509
      9 C           1.0364   -2.6997    0.0689 C.ar    1  UNL1        0.0478
     10 C          -0.1108   -3.5539    0.0832 C.ar    1  UNL1       -0.0388
     11 C          -1.2301   -2.7698    0.0546 C.ar    1  UNL1       -0.0388
     12 C          -0.8058   -1.4052    0.0434 C.ar    1  UNL1        0.0480
     13 N           0.5783   -1.3723    0.0588 N.ar    1  UNL1       -0.2553
     14 C          -1.1277    1.0271    0.1206 C.ar    1  UNL1        0.0480
     15 C          -1.8895    2.2267    0.2638 C.ar    1  UNL1       -0.0388
     16 C          -1.0124    3.2739    0.3397 C.ar    1  UNL1       -0.0388
     17 C           0.3165    2.7572    0.2398 C.ar    1  UNL1        0.0478
     18 N           0.2179    1.3589    0.1097 N.ar    1  UNL1       -0.2553
     19 C           2.7138    2.9066   -0.1204 C.ar    1  UNL1        0.0482
     20 C           4.0315    3.4406   -0.2402 C.ar    1  UNL1       -0.0385
     21 C           4.8991    2.3903   -0.5047 C.ar    1  UNL1       -0.0340
     22 C           4.1175    1.2141   -0.5346 C.ar    1  UNL1        0.0768
     23 N           2.8021    1.5507   -0.3331 N.ar    1  UNL1       -0.2509
     24 C           0.8528    6.9170    1.7286 C.ar    1  UNL1       -0.0615
     25 C           0.9000    5.5361    1.5446 C.ar    1  UNL1       -0.0573
     26 C           1.4282    4.9890    0.3645 C.ar    1  UNL1       -0.0281
     27 C           1.9120    5.8611   -0.6240 C.ar    1  UNL1       -0.0573
     28 C           1.8665    7.2418   -0.4375 C.ar    1  UNL1       -0.0615
     29 C          -5.1454   -1.2559    1.1361 C.ar    1  UNL1        0.1897
     30 C          -3.7688   -1.0787    1.1302 C.ar    1  UNL1        0.1680
     31 C          -3.0996   -0.4609    0.0688 C.ar    1  UNL1        0.0481
     32 C          -3.8977   -0.0130   -0.9884 C.ar    1  UNL1        0.1680
     33 C          -5.2769   -0.1694   -0.9906 C.ar    1  UNL1        0.1897
     34 C           3.6814   -6.5764   -0.8972 C.ar    1  UNL1       -0.0615
     35 C           3.3661   -5.2219   -0.9929 C.ar    1  UNL1       -0.0573
     36 C           2.6875   -4.5706    0.0494 C.ar    1  UNL1       -0.0281
     37 C           2.3328   -5.3106    1.1887 C.ar    1  UNL1       -0.0573
     38 C           2.6478   -6.6654    1.2821 C.ar    1  UNL1       -0.0615
     39 P           1.6165    0.1597   -0.1201 P.3     1  UNL1        0.3022
     40 O           1.9723    0.1720    1.5392 O.3     1  UNL1       -0.2961
     41 O           1.3162    0.0532   -1.7859 O.3     1  UNL1       -0.2961
     42 H           6.4036   -0.8791   -0.7809 H       1  UNL1        0.0639
     43 H           5.3076   -3.3181   -0.4095 H       1  UNL1        0.0636
     44 H          -0.0635   -4.6327    0.0807 H       1  UNL1        0.0636
     45 H          -2.2593   -3.0966    0.0343 H       1  UNL1        0.0636
     46 H          -2.9678    2.2686    0.3128 H       1  UNL1        0.0636
     47 H          -1.2492    4.3233    0.4320 H       1  UNL1        0.0636
     48 H           4.2861    4.4845   -0.1280 H       1  UNL1        0.0636
     49 H           5.9709    2.4399   -0.6390 H       1  UNL1        0.0639
     50 H           0.4451    7.3230    2.6502 H       1  UNL1        0.0618
     51 H           0.5402    4.8700    2.3228 H       1  UNL1        0.0621
     52 H           2.3081    5.4493   -1.5471 H       1  UNL1        0.0621
     53 H           2.2383    7.9020   -1.2161 H       1  UNL1        0.0618
     54 H           4.2002   -7.0665   -1.7165 H       1  UNL1        0.0618
     55 H           3.6280   -4.6632   -1.8859 H       1  UNL1        0.0621
     56 H           1.8218   -4.8117    2.0065 H       1  UNL1        0.0621
     57 H           2.3716   -7.2216    2.1737 H       1  UNL1        0.0618
     58 C           0.9894    0.0820    2.5545 C.3     1  UNL1        0.0481
     59 H           0.3300    0.9581    2.5719 H       1  UNL1        0.0530
     60 H           0.3774   -0.8229    2.4648 H       1  UNL1        0.0530
     61 H           1.5355    0.0389    3.5018 H       1  UNL1        0.0530
     62 C           0.9713    1.1579   -2.6037 C.3     1  UNL1        0.0481
     63 H           1.6810    1.9881   -2.5100 H       1  UNL1        0.0530
     64 H           1.0023    0.7918   -3.6345 H       1  UNL1        0.0530
     65 H          -0.0407    1.5244   -2.3956 H       1  UNL1        0.0530
     66 C           3.3238   -7.3026    0.2401 C.ar    1  UNL1       -0.0617
     67 C          -5.9353   -0.8004    0.0725 C.ar    1  UNL1        0.1759
     68 C           1.3363    7.7746    0.7388 C.ar    1  UNL1       -0.0617
     69 H           3.5703   -8.3581    0.3137 H       1  UNL1        0.0618
     70 H           1.3007    8.8506    0.8835 H       1  UNL1        0.0618
     71 F          -5.7313   -1.8554    2.1816 F       1  UNL1       -0.2000
     72 F          -5.9932    0.2796   -2.0378 F       1  UNL1       -0.2000
     73 F          -3.0761   -1.5209    2.1915 F       1  UNL1       -0.2020
     74 F          -3.3342    0.5953   -2.0435 F       1  UNL1       -0.2020
     75 N          -7.3143   -1.0179    0.1748 N.2     1  UNL1       -0.0660
     76 N          -8.9204   -0.3521   -1.4348 N.2     1  UNL1        0.0682
     77 N          -8.0751   -0.6301   -0.7265 N.2     1  UNL1       -0.1615
@<TRIPOS>BOND
     1     1     7    1
     2     1     9    1
     3     1    36    1
     4     2    12    1
     5     2    14    1
     6     2    31    1
     7     3    17    1
     8     3    19    1
     9     3    26    1
    10     4     5   ar
    11     4     8   ar
    12     4    22    1
    13     5     6   ar
    14     5    42    1
    15     6     7   ar
    16     6    43    1
    17     7     8   ar
    18     8    39    1
    19     9    10   ar
    20     9    13   ar
    21    10    11   ar
    22    10    44    1
    23    11    12   ar
    24    11    45    1
    25    12    13   ar
    26    13    39    1
    27    14    15   ar
    28    14    18   ar
    29    15    16   ar
    30    15    46    1
    31    16    17   ar
    32    16    47    1
    33    17    18   ar
    34    18    39    1
    35    19    20   ar
    36    19    23   ar
    37    20    21   ar
    38    20    48    1
    39    21    22   ar
    40    21    49    1
    41    22    23   ar
    42    23    39    1
    43    24    25   ar
    44    24    50    1
    45    24    68   ar
    46    25    26   ar
    47    25    51    1
    48    26    27   ar
    49    27    28   ar
    50    27    52    1
    51    28    53    1
    52    28    68   ar
    53    29    30   ar
    54    29    67   ar
    55    29    71    1
    56    30    31   ar
    57    30    73    1
    58    31    32   ar
    59    32    33   ar
    60    32    74    1
    61    33    67   ar
    62    33    72    1
    63    34    35   ar
    64    34    54    1
    65    34    66   ar
    66    35    36   ar
    67    35    55    1
    68    36    37   ar
    69    37    38   ar
    70    37    56    1
    71    38    57    1
    72    38    66   ar
    73    39    40    1
    74    39    41    1
    75    40    58    1
    76    41    62    1
    77    58    59    1
    78    58    60    1
    79    58    61    1
    80    62    63    1
    81    62    64    1
    82    62    65    1
    83    66    69    1
    84    67    75    1
    85    68    70    1
    86    75    77    2
    87    76    77    2
