@<TRIPOS>MOLECULE
F5Ga_N3_TD
 78 89 0 0 0
SMALL
GASTEIGER

@<TRIPOS>ATOM
      1 C           1.8728   -3.3123   -0.6589 C.3     1  UNL1        0.0000
      2 C          -1.7878   -0.0266   -0.2890 C.3     1  UNL1        0.0000
      3 C           1.7294    3.4338   -0.3849 C.3     1  UNL1        0.0000
      4 C           4.2218   -0.5983   -0.6728 C.ar    1  UNL1        0.0000
      5 C           5.1586   -1.6522   -0.8614 C.ar    1  UNL1        0.0000
      6 C           4.4396   -2.8461   -0.8544 C.ar    1  UNL1        0.0000
      7 C           3.0523   -2.5201   -0.6804 C.ar    1  UNL1        0.0000
      8 N           2.9797   -1.1615   -0.5562 N.ar    1  UNL1        0.0000
      9 C           0.5717   -2.7684   -0.5591 C.ar    1  UNL1        0.0000
     10 C          -0.6750   -3.4822   -0.6552 C.ar    1  UNL1        0.0000
     11 C          -1.7014   -2.5759   -0.5531 C.ar    1  UNL1        0.0000
     12 C          -1.1186   -1.2697   -0.4044 C.ar    1  UNL1        0.0000
     13 N           0.2505   -1.4179   -0.4053 N.ar    1  UNL1        0.0000
     14 C          -1.1711    1.2478   -0.2799 C.ar    1  UNL1        0.0000
     15 C          -1.8044    2.5355   -0.1862 C.ar    1  UNL1        0.0000
     16 C          -0.8184    3.4900   -0.2134 C.ar    1  UNL1        0.0000
     17 C           0.4543    2.8262   -0.3247 C.ar    1  UNL1        0.0000
     18 N           0.1909    1.4533   -0.3465 N.ar    1  UNL1        0.0000
     19 C           2.9448    2.6983   -0.4464 C.ar    1  UNL1        0.0000
     20 C           4.2959    3.0949   -0.7228 C.ar    1  UNL1        0.0000
     21 C           5.0687    1.9383   -0.8106 C.ar    1  UNL1        0.0000
     22 C           4.1965    0.8351   -0.5960 C.ar    1  UNL1        0.0000
     23 N           2.9450    1.3358   -0.3488 N.ar    1  UNL1        0.0000
     24 C           1.8212    4.9158   -0.4396 C.ar    1  UNL1        0.0000
     25 C           2.6446    5.6107    0.4626 C.ar    1  UNL1        0.0000
     26 C           2.7546    6.9994    0.4061 C.ar    1  UNL1        0.0000
     27 C           2.0437    7.7221   -0.5541 C.ar    1  UNL1        0.0000
     28 C           1.2264    7.0439   -1.4607 C.ar    1  UNL1        0.0000
     29 C           1.1190    5.6549   -1.4069 C.ar    1  UNL1        0.0000
     30 C          -3.2635   -0.0789   -0.1439 C.ar    1  UNL1        0.0000
     31 C          -4.1385    0.4749   -1.0834 C.ar    1  UNL1        0.0000
     32 C          -5.5180    0.4180   -0.9339 C.ar    1  UNL1        0.0000
     33 C          -6.1024   -0.2225    0.1659 C.ar    1  UNL1        0.0000
     34 C          -5.2371   -0.7848    1.1139 C.ar    1  UNL1        0.0000
     35 C          -3.8610   -0.7026    0.9579 C.ar    1  UNL1        0.0000
     36 F          -3.6543    1.0847   -2.1758 F       1  UNL1        0.0000
     37 F          -6.3093    0.9726   -1.8711 F       1  UNL1        0.0000
     38 F          -5.7489   -1.3962    2.1919 F       1  UNL1        0.0000
     39 F          -3.0915   -1.2439    1.9212 F       1  UNL1        0.0000
     40 C           2.0174   -4.7875   -0.7816 C.ar    1  UNL1        0.0000
     41 C           1.4946   -5.6466    0.1993 C.ar    1  UNL1        0.0000
     42 C           1.6389   -7.0291    0.0887 C.ar    1  UNL1        0.0000
     43 C           2.3121   -7.5803   -1.0033 C.ar    1  UNL1        0.0000
     44 C           2.8380   -6.7374   -1.9846 C.ar    1  UNL1        0.0000
     45 C           2.6915   -5.3549   -1.8758 C.ar    1  UNL1        0.0000
     46 GA          1.5014    0.0370   -0.0959 Ga      1  UNL1        0.0000
     47 H           6.2281   -1.5421   -0.9863 H       1  UNL1        0.0000
     48 H          -0.7664   -4.5473   -0.8118 H       1  UNL1        0.0000
     49 H          -2.7603   -2.7851   -0.6144 H       1  UNL1        0.0000
     50 H          -2.8684    2.7089   -0.1101 H       1  UNL1        0.0000
     51 H          -0.9551    4.5599   -0.1541 H       1  UNL1        0.0000
     52 H           4.6357    4.1102   -0.8737 H       1  UNL1        0.0000
     53 H           4.8443   -3.8416   -0.9737 H       1  UNL1        0.0000
     54 H           6.1255    1.8823   -1.0373 H       1  UNL1        0.0000
     55 C           0.4098   -0.3871    2.7226 C.3     1  UNL1        0.0000
     56 C           0.3935   -0.4638    4.1101 C.2     1  UNL1        0.0000
     57 C           1.5697   -0.2024    4.8125 C.2     1  UNL1        0.0000
     58 C           2.7234    0.1299    4.1027 C.2     1  UNL1        0.0000
     59 C           2.6607    0.1922    2.7160 C.2     1  UNL1        0.0000
     60 N           1.5253   -0.0639    2.0432 N.pl3   1  UNL1        0.0000
     61 H           1.5871   -0.2570    5.8967 H       1  UNL1        0.0000
     62 H          -0.4786   -0.5846    2.1340 H       1  UNL1        0.0000
     63 H          -0.5264   -0.7238    4.6221 H       1  UNL1        0.0000
     64 H           3.6589    0.3391    4.6097 H       1  UNL1        0.0000
     65 H           3.5240    0.4500    2.1129 H       1  UNL1        0.0000
     66 N          -7.4751   -0.3502    0.4115 N.2     1  UNL1        0.0000
     67 N          -8.2995    0.0944   -0.4031 N.2     1  UNL1        0.0000
     68 N          -9.1935    0.4316   -1.0207 N.2     1  UNL1        0.0000
     69 H           3.1886    5.0526    1.2183 H       1  UNL1        0.0000
     70 H           3.3918    7.5180    1.1174 H       1  UNL1        0.0000
     71 H           2.1286    8.8043   -0.5979 H       1  UNL1        0.0000
     72 H           0.6791    7.5959   -2.2201 H       1  UNL1        0.0000
     73 H           0.5028    5.1289   -2.1292 H       1  UNL1        0.0000
     74 H           0.9846   -5.2202    1.0577 H       1  UNL1        0.0000
     75 H           1.2309   -7.6759    0.8607 H       1  UNL1        0.0000
     76 H           2.4252   -8.6574   -1.0893 H       1  UNL1        0.0000
     77 H           3.3558   -7.1570   -2.8429 H       1  UNL1        0.0000
     78 H           3.0849   -4.7040   -2.6501 H       1  UNL1        0.0000
@<TRIPOS>BOND
     1     1     7    1
     2     1     9    1
     3     1    40    1
     4     2    12    1
     5     2    14    1
     6     2    30    1
     7     3    17    1
     8     3    19    1
     9     3    24    1
    10     4     5   ar
    11     4     8   ar
    12     4    22    1
    13     5     6   ar
    14     5    47    1
    15     6     7   ar
    16     6    53    1
    17     7     8   ar
    18     8    46    1
    19     9    10   ar
    20     9    13   ar
    21    10    11   ar
    22    10    48    1
    23    11    12   ar
    24    11    49    1
    25    12    13   ar
    26    13    46    1
    27    14    15   ar
    28    14    18   ar
    29    15    16   ar
    30    15    50    1
    31    16    17   ar
    32    16    51    1
    33    17    18   ar
    34    18    46    1
    35    19    20   ar
    36    19    23   ar
    37    20    21   ar
    38    20    52    1
    39    21    22   ar
    40    21    54    1
    41    22    23   ar
    42    23    46    1
    43    24    25   ar
    44    24    29   ar
    45    25    26   ar
    46    25    69    1
    47    26    27   ar
    48    26    70    1
    49    27    28   ar
    50    27    71    1
    51    28    29   ar
    52    28    72    1
    53    29    73    1
    54    30    31   ar
    55    30    35   ar
    56    31    32   ar
    57    31    36    1
    58    32    33   ar
    59    32    37    1
    60    33    34   ar
    61    33    66    1
    62    34    35   ar
    63    34    38    1
    64    35    39    1
    65    40    41   ar
    66    40    45   ar
    67    41    42   ar
    68    41    74    1
    69    42    43   ar
    70    42    75    1
    71    43    44   ar
    72    43    76    1
    73    44    45   ar
    74    44    77    1
    75    45    78    1
    76    46    60    1
    77    55    56    1
    78    55    60    1
    79    55    62    1
    80    56    57    2
    81    56    63    1
    82    57    58    1
    83    57    61    1
    84    58    59    2
    85    58    64    1
    86    59    60    1
    87    59    65    1
    88    66    67    2
    89    67    68    2
