@<TRIPOS>MOLECULE
F10_2_4_6_trimethoxyphenyl_TD
 79 86 0 0 0
SMALL
GASTEIGER

@<TRIPOS>ATOM
      1 C          -3.4753   -1.3876   -0.0899 C.3     1  UNL1        0.1014
      2 C           0.0302    2.0772   -0.0717 C.3     1  UNL1        0.1025
      3 C           3.3726   -1.5043    0.0321 C.3     1  UNL1        0.1011
      4 C          -0.7790   -3.7948   -0.1664 C.ar    1  UNL1        0.0631
      5 C          -1.8082   -4.6503    0.2791 C.ar    1  UNL1       -0.0347
      6 C          -2.9952   -3.9126    0.3279 C.ar    1  UNL1       -0.0392
      7 C          -2.7158   -2.5854   -0.0828 C.ar    1  UNL1        0.0347
      8 N          -1.3737   -2.5677   -0.3989 N.ar    1  UNL1       -0.3557
      9 C          -2.8736   -0.1168   -0.1430 C.ar    1  UNL1        0.0344
     10 C          -3.4815    1.1585   -0.3826 C.ar    1  UNL1       -0.0396
     11 C          -2.5013    2.1222   -0.3783 C.ar    1  UNL1       -0.0396
     12 C          -1.2389    1.4897   -0.1389 C.ar    1  UNL1        0.0344
     13 N          -1.5113    0.1394   -0.0214 N.ar    1  UNL1       -0.3596
     14 C           1.2614    1.3790    0.0090 C.2     1  UNL1        0.0489
     15 C           2.5627    2.0302    0.0627 C.2     1  UNL1       -0.0400
     16 C           3.4998    1.0435    0.0902 C.2     1  UNL1       -0.0400
     17 C           2.7820   -0.2198    0.0555 C.2     1  UNL1        0.0489
     18 N           1.4229    0.0237    0.0126 N.pl3   1  UNL1       -0.2209
     19 C           2.6065   -2.6867   -0.0898 C.ar    1  UNL1        0.0346
     20 C           2.8874   -4.0828   -0.0021 C.ar    1  UNL1       -0.0392
     21 C           1.6756   -4.7676   -0.0461 C.ar    1  UNL1       -0.0347
     22 C           0.6375   -3.8051   -0.1703 C.ar    1  UNL1        0.0631
     23 N           1.2518   -2.5843   -0.2280 N.ar    1  UNL1       -0.3557
     24 C           6.9194   -1.2914    1.3986 C.ar    1  UNL1        0.1967
     25 C           5.5402   -1.1611    1.2746 C.ar    1  UNL1        0.1686
     26 C           4.8429   -1.6415    0.1593 C.ar    1  UNL1        0.0479
     27 C           5.6045   -2.2831   -0.8248 C.ar    1  UNL1        0.1686
     28 C           6.9825   -2.4350   -0.7162 C.ar    1  UNL1        0.1967
     29 C          -0.2607    5.7309    0.9789 C.ar    1  UNL1        0.0223
     30 C          -0.3034    4.3369    1.0065 C.ar    1  UNL1        0.1315
     31 C           0.0702    3.5689   -0.1156 C.ar    1  UNL1        0.0551
     32 C           0.4838    4.2512   -1.2699 C.ar    1  UNL1        0.1315
     33 C           0.5403    5.6519   -1.3202 C.ar    1  UNL1        0.0223
     34 C          -7.0603   -2.4229   -0.8096 C.ar    1  UNL1        0.1967
     35 C          -5.6778   -2.2987   -0.8866 C.ar    1  UNL1        0.1687
     36 C          -4.9466   -1.4882   -0.0060 C.ar    1  UNL1        0.0481
     37 C          -5.6881   -0.8052    0.9690 C.ar    1  UNL1        0.1687
     38 C          -7.0724   -0.9041    1.0540 C.ar    1  UNL1        0.1967
     39 H          -1.6718   -5.6717    0.6075 H       1  UNL1        0.0639
     40 H          -3.9513   -4.2616    0.6926 H       1  UNL1        0.0636
     41 H          -4.5342    1.3059   -0.5780 H       1  UNL1        0.0636
     42 H          -2.6244    3.1804   -0.5574 H       1  UNL1        0.0636
     43 H           2.7264    3.0985    0.0772 H       1  UNL1        0.0634
     44 H           4.5748    1.1601    0.1103 H       1  UNL1        0.0634
     45 H           3.8707   -4.5203    0.1002 H       1  UNL1        0.0636
     46 H           1.5340   -5.8390   -0.0048 H       1  UNL1        0.0639
     47 C          -7.7628   -1.7195    0.1633 C.ar    1  UNL1        0.1991
     48 C           0.1648    6.3775   -0.1868 C.ar    1  UNL1        0.1271
     49 C           7.6440   -1.9334    0.3998 C.ar    1  UNL1        0.1991
     50 F          -9.0927   -1.8270    0.2422 F       1  UNL1       -0.1993
     51 F          -7.7420   -0.2374    2.0033 F       1  UNL1       -0.1993
     52 F          -5.0685   -0.0359    1.8763 F       1  UNL1       -0.2020
     53 F          -7.7203   -3.1998   -1.6784 F       1  UNL1       -0.1993
     54 F          -5.0505   -2.9761   -1.8597 F       1  UNL1       -0.2020
     55 F           4.8821   -0.5604    2.2762 F       1  UNL1       -0.2020
     56 F           7.5513   -0.8194    2.4813 F       1  UNL1       -0.1993
     57 F           7.6773   -3.0474   -1.6843 F       1  UNL1       -0.1993
     58 F           8.9695   -2.0680    0.5121 F       1  UNL1       -0.1993
     59 F           5.0113   -2.7681   -1.9263 F       1  UNL1       -0.2020
     60 H          -0.5365    6.3358    1.8321 H       1  UNL1        0.0691
     61 H           0.8585    6.1557   -2.2206 H       1  UNL1        0.0691
     62 O           0.1795    7.7377   -0.1211 O.3     1  UNL1       -0.4949
     63 O          -0.6898    3.6233    2.0975 O.3     1  UNL1       -0.4946
     64 C           0.6072    8.4613   -1.2671 C.3     1  UNL1        0.0788
     65 H           1.6434    8.2171   -1.5338 H       1  UNL1        0.0660
     66 H          -0.0451    8.2737   -2.1296 H       1  UNL1        0.0660
     67 H           0.5470    9.5169   -0.9946 H       1  UNL1        0.0660
     68 C          -1.0685    4.3330    3.2686 C.3     1  UNL1        0.0788
     69 H          -0.2416    4.9412    3.6561 H       1  UNL1        0.0660
     70 H          -1.9397    4.9750    3.0871 H       1  UNL1        0.0660
     71 H          -1.3312    3.5710    4.0047 H       1  UNL1        0.0660
     72 O           0.8174    3.4613   -2.3270 O.3     1  UNL1       -0.4946
     73 C           1.3234    4.0748   -3.5029 C.3     1  UNL1        0.0788
     74 H           1.5530    3.2570   -4.1887 H       1  UNL1        0.0660
     75 H           0.5799    4.7354   -3.9671 H       1  UNL1        0.0660
     76 H           2.2401    4.6429   -3.2997 H       1  UNL1        0.0660
     77 H          -0.9840   -1.8810   -1.0312 H       1  UNL1        0.1657
     78 H           0.8466   -1.6416   -0.1590 H       1  UNL1        0.1657
     79 H          -0.8350   -0.4838    0.3975 H       1  UNL1        0.1653
@<TRIPOS>BOND
     1     1     7    1
     2     1     9    1
     3     1    36    1
     4     2    12    1
     5     2    14    1
     6     2    31    1
     7     3    17    1
     8     3    19    1
     9     3    26    1
    10     4     5   ar
    11     4     8   ar
    12     4    22    1
    13     5     6   ar
    14     5    39    1
    15     6     7   ar
    16     6    40    1
    17     7     8   ar
    18     8    77    1
    19     9    10   ar
    20     9    13   ar
    21    10    11   ar
    22    10    41    1
    23    11    12   ar
    24    11    42    1
    25    12    13   ar
    26    13    79    1
    27    14    15    2
    28    14    18    1
    29    15    16    1
    30    15    43    1
    31    16    17    2
    32    16    44    1
    33    17    18    1
    34    19    20   ar
    35    19    23   ar
    36    20    21   ar
    37    20    45    1
    38    21    22   ar
    39    21    46    1
    40    22    23   ar
    41    23    78    1
    42    24    25   ar
    43    24    49   ar
    44    24    56    1
    45    25    26   ar
    46    25    55    1
    47    26    27   ar
    48    27    28   ar
    49    27    59    1
    50    28    49   ar
    51    28    57    1
    52    29    30   ar
    53    29    48   ar
    54    29    60    1
    55    30    31   ar
    56    30    63    1
    57    31    32   ar
    58    32    33   ar
    59    32    72    1
    60    33    48   ar
    61    33    61    1
    62    34    35   ar
    63    34    47   ar
    64    34    53    1
    65    35    36   ar
    66    35    54    1
    67    36    37   ar
    68    37    38   ar
    69    37    52    1
    70    38    47   ar
    71    38    51    1
    72    47    50    1
    73    48    62    1
    74    49    58    1
    75    62    64    1
    76    63    68    1
    77    64    65    1
    78    64    66    1
    79    64    67    1
    80    68    69    1
    81    68    70    1
    82    68    71    1
    83    72    73    1
    84    73    74    1
    85    73    75    1
    86    73    76    1
