@<TRIPOS>MOLECULE
F10_2_4_OH_TD
 69 76 0 0 0
SMALL
GASTEIGER

@<TRIPOS>ATOM
      1 C           3.4077   -1.0288   -0.1001 C.3     1  UNL1        0.1014
      2 C          -0.0128    2.5217   -0.1219 C.3     1  UNL1        0.0989
      3 C          -3.4352   -0.9922   -0.1139 C.3     1  UNL1        0.1011
      4 C           0.6640   -3.3749   -0.2247 C.ar    1  UNL1        0.0631
      5 C           1.6712   -4.2635    0.2054 C.ar    1  UNL1       -0.0347
      6 C           2.8752   -3.5562    0.2752 C.ar    1  UNL1       -0.0392
      7 C           2.6287   -2.2112   -0.1023 C.ar    1  UNL1        0.0347
      8 N           1.2858   -2.1539   -0.4196 N.ar    1  UNL1       -0.3557
      9 C           2.8382    0.2549   -0.1544 C.ar    1  UNL1        0.0344
     10 C           3.4875    1.5220   -0.3225 C.ar    1  UNL1       -0.0396
     11 C           2.5324    2.5097   -0.3341 C.ar    1  UNL1       -0.0396
     12 C           1.2451    1.9049   -0.1651 C.ar    1  UNL1        0.0342
     13 N           1.4769    0.5438   -0.0836 N.ar    1  UNL1       -0.3596
     14 C          -1.2629    1.8489   -0.0808 C.2     1  UNL1        0.0488
     15 C          -2.5530    2.5244   -0.0295 C.2     1  UNL1       -0.0400
     16 C          -3.5092    1.5550   -0.0318 C.2     1  UNL1       -0.0400
     17 C          -2.8166    0.2796   -0.0761 C.2     1  UNL1        0.0489
     18 N          -1.4521    0.4964   -0.1007 N.pl3   1  UNL1       -0.2209
     19 C          -2.6946   -2.1909   -0.2214 C.ar    1  UNL1        0.0346
     20 C          -3.0101   -3.5814   -0.1497 C.ar    1  UNL1       -0.0392
     21 C          -1.8145   -4.2936   -0.1692 C.ar    1  UNL1       -0.0347
     22 C          -0.7508   -3.3544   -0.2610 C.ar    1  UNL1        0.0631
     23 N          -1.3355   -2.1195   -0.3238 N.ar    1  UNL1       -0.3557
     24 C          -4.9104   -1.0981   -0.0117 C.ar    1  UNL1        0.0479
     25 C          -5.6686   -1.7141   -1.0144 C.ar    1  UNL1        0.1686
     26 C          -7.0507   -1.8411   -0.9281 C.ar    1  UNL1        0.1967
     27 C          -7.7192   -1.3394    0.1837 C.ar    1  UNL1        0.1991
     28 C          -6.9979   -0.7222    1.2004 C.ar    1  UNL1        0.1967
     29 C          -5.6148   -0.6169    1.0985 C.ar    1  UNL1        0.1686
     30 F          -5.0668   -2.1987   -2.1114 F       1  UNL1       -0.2020
     31 F          -7.7419   -2.4301   -1.9128 F       1  UNL1       -0.1993
     32 F          -9.0482   -1.4508    0.2756 F       1  UNL1       -0.1993
     33 F          -7.6369   -0.2505    2.2789 F       1  UNL1       -0.1993
     34 F          -4.9599   -0.0399    2.1159 F       1  UNL1       -0.2020
     35 C           4.8866   -1.1517   -0.0188 C.ar    1  UNL1        0.0481
     36 C           5.5180   -1.6682    1.1168 C.ar    1  UNL1        0.1687
     37 C           6.8991   -1.8127    1.1971 C.ar    1  UNL1        0.1967
     38 C           7.6949   -1.4177    0.1268 C.ar    1  UNL1        0.1991
     39 C           7.1012   -0.8911   -1.0157 C.ar    1  UNL1        0.1967
     40 C           5.7166   -0.7742   -1.0790 C.ar    1  UNL1        0.1687
     41 F           4.7876   -2.0507    2.1760 F       1  UNL1       -0.2020
     42 F           7.4665   -2.3137    2.3017 F       1  UNL1       -0.1993
     43 F           9.0237   -1.5426    0.1963 F       1  UNL1       -0.1993
     44 F           7.8625   -0.5133   -2.0505 F       1  UNL1       -0.1993
     45 F           5.1838   -0.2738   -2.2044 F       1  UNL1       -0.2020
     46 C          -0.0233    4.0140   -0.1632 C.ar    1  UNL1        0.0134
     47 C           0.4518    4.7825    0.9191 C.ar    1  UNL1        0.1248
     48 C           0.4326    6.1769    0.8747 C.ar    1  UNL1        0.0216
     49 C          -0.0707    6.8315   -0.2516 C.ar    1  UNL1        0.1203
     50 C          -0.5519    6.0937   -1.3371 C.ar    1  UNL1       -0.0197
     51 C          -0.5188    4.7024   -1.2756 C.ar    1  UNL1       -0.0503
     52 H           1.5116   -5.2895    0.5079 H       1  UNL1        0.0639
     53 H           3.8175   -3.9408    0.6370 H       1  UNL1        0.0636
     54 H           0.9298   -1.4649   -1.0700 H       1  UNL1        0.1657
     55 H           4.5520    1.6537   -0.4508 H       1  UNL1        0.0636
     56 H           2.6956    3.5685   -0.4723 H       1  UNL1        0.0636
     57 H           0.7738   -0.0662    0.3106 H       1  UNL1        0.1653
     58 H          -2.7010    3.5940    0.0081 H       1  UNL1        0.0634
     59 H          -4.5815    1.6940   -0.0185 H       1  UNL1        0.0634
     60 H          -4.0055   -3.9962   -0.0743 H       1  UNL1        0.0636
     61 H          -1.6989   -5.3681   -0.1305 H       1  UNL1        0.0639
     62 H          -0.9095   -1.1874   -0.2455 H       1  UNL1        0.1657
     63 H           0.7958    6.7663    1.7125 H       1  UNL1        0.0691
     64 H          -0.9407    6.5985   -2.2179 H       1  UNL1        0.0654
     65 H          -0.8868    4.1240   -2.1175 H       1  UNL1        0.0623
     66 O           0.9200    4.1145    2.0112 O.3     1  UNL1       -0.5063
     67 H           1.1982    4.7620    2.6796 H       1  UNL1        0.2921
     68 O          -0.0647    8.1945   -0.2302 O.3     1  UNL1       -0.5066
     69 H          -0.4427    8.5229   -1.0626 H       1  UNL1        0.2921
@<TRIPOS>BOND
     1     1     7    1
     2     1     9    1
     3     1    35    1
     4     2    12    1
     5     2    14    1
     6     2    46    1
     7     3    17    1
     8     3    19    1
     9     3    24    1
    10     4     5   ar
    11     4     8   ar
    12     4    22    1
    13     5     6   ar
    14     5    52    1
    15     6     7   ar
    16     6    53    1
    17     7     8   ar
    18     8    54    1
    19     9    10   ar
    20     9    13   ar
    21    10    11   ar
    22    10    55    1
    23    11    12   ar
    24    11    56    1
    25    12    13   ar
    26    13    57    1
    27    14    15    2
    28    14    18    1
    29    15    16    1
    30    15    58    1
    31    16    17    2
    32    16    59    1
    33    17    18    1
    34    19    20   ar
    35    19    23   ar
    36    20    21   ar
    37    20    60    1
    38    21    22   ar
    39    21    61    1
    40    22    23   ar
    41    23    62    1
    42    24    25   ar
    43    24    29   ar
    44    25    26   ar
    45    25    30    1
    46    26    27   ar
    47    26    31    1
    48    27    28   ar
    49    27    32    1
    50    28    29   ar
    51    28    33    1
    52    29    34    1
    53    35    36   ar
    54    35    40   ar
    55    36    37   ar
    56    36    41    1
    57    37    38   ar
    58    37    42    1
    59    38    39   ar
    60    38    43    1
    61    39    40   ar
    62    39    44    1
    63    40    45    1
    64    46    47   ar
    65    46    51   ar
    66    47    48   ar
    67    47    66    1
    68    48    49   ar
    69    48    63    1
    70    49    50   ar
    71    49    68    1
    72    50    51   ar
    73    50    64    1
    74    51    65    1
    75    66    67    1
    76    68    69    1
