@<TRIPOS>MOLECULE
F10_2_Br_4_OH_TD
 68 75 0 0 0
SMALL
GASTEIGER

@<TRIPOS>ATOM
      1 C           3.3010   -1.3810   -0.1860 C.3     1  UNL1        0.1014
      2 C          -0.0374    2.2298   -0.4579 C.3     1  UNL1        0.0964
      3 C          -3.5416   -1.1812   -0.1429 C.3     1  UNL1        0.1011
      4 C           0.5009   -3.6614   -0.1326 C.ar    1  UNL1        0.0631
      5 C           1.4923   -4.5474    0.3395 C.ar    1  UNL1       -0.0347
      6 C           2.7124   -3.8649    0.3584 C.ar    1  UNL1       -0.0392
      7 C           2.4923   -2.5393   -0.0961 C.ar    1  UNL1        0.0347
      8 N           1.1479   -2.4692   -0.4021 N.ar    1  UNL1       -0.3557
      9 C           2.7639   -0.0925   -0.3427 C.ar    1  UNL1        0.0344
     10 C           3.4370    1.1389   -0.6345 C.ar    1  UNL1       -0.0396
     11 C           2.5027    2.1425   -0.7249 C.ar    1  UNL1       -0.0396
     12 C           1.2059    1.5839   -0.4819 C.ar    1  UNL1        0.0341
     13 N           1.4091    0.2320   -0.2793 N.ar    1  UNL1       -0.3596
     14 C          -1.3023    1.5991   -0.3321 C.2     1  UNL1        0.0487
     15 C          -2.5731    2.3111   -0.2985 C.2     1  UNL1       -0.0400
     16 C          -3.5527    1.3689   -0.2140 C.2     1  UNL1       -0.0400
     17 C          -2.8928    0.0750   -0.1886 C.2     1  UNL1        0.0489
     18 N          -1.5242    0.2550   -0.2532 N.pl3   1  UNL1       -0.2209
     19 C          -2.8302   -2.4025   -0.1842 C.ar    1  UNL1        0.0346
     20 C          -3.1768   -3.7794   -0.0324 C.ar    1  UNL1       -0.0392
     21 C          -1.9979   -4.5190   -0.0169 C.ar    1  UNL1       -0.0347
     22 C          -0.9138   -3.6109   -0.1648 C.ar    1  UNL1        0.0631
     23 N          -1.4707   -2.3690   -0.2968 N.ar    1  UNL1       -0.3557
     24 C          -5.0181   -1.2437   -0.0212 C.ar    1  UNL1        0.0479
     25 C          -5.8020   -1.8994   -0.9778 C.ar    1  UNL1        0.1686
     26 C          -7.1859   -1.9849   -0.8723 C.ar    1  UNL1        0.1967
     27 C          -7.8301   -1.4001    0.2128 C.ar    1  UNL1        0.1991
     28 C          -7.0830   -0.7413    1.1839 C.ar    1  UNL1        0.1967
     29 C          -5.6989   -0.6774    1.0635 C.ar    1  UNL1        0.1686
     30 F          -5.2243   -2.4659   -2.0482 F       1  UNL1       -0.2020
     31 F          -7.9011   -2.6152   -1.8132 F       1  UNL1       -0.1993
     32 F          -9.1603   -1.4714    0.3225 F       1  UNL1       -0.1993
     33 F          -7.6986   -0.1890    2.2372 F       1  UNL1       -0.1993
     34 F          -5.0197   -0.0543    2.0368 F       1  UNL1       -0.2020
     35 C           4.7765   -1.5376   -0.1034 C.ar    1  UNL1        0.0481
     36 C           5.4027   -1.9643    1.0714 C.ar    1  UNL1        0.1687
     37 C           6.7804   -2.1363    1.1563 C.ar    1  UNL1        0.1967
     38 C           7.5763   -1.8642    0.0483 C.ar    1  UNL1        0.1991
     39 C           6.9870   -1.4314   -1.1353 C.ar    1  UNL1        0.1967
     40 C           5.6056   -1.2835   -1.1999 C.ar    1  UNL1        0.1687
     41 F           4.6699   -2.2294    2.1639 F       1  UNL1       -0.2020
     42 F           7.3448   -2.5482    2.2982 F       1  UNL1       -0.1993
     43 F           8.9016   -2.0181    0.1210 F       1  UNL1       -0.1993
     44 F           7.7487   -1.1760   -2.2064 F       1  UNL1       -0.1993
     45 F           5.0733   -0.8775   -2.3629 F       1  UNL1       -0.2020
     46 C          -0.0136    3.7123   -0.6285 C.ar    1  UNL1       -0.0141
     47 C           0.4755    4.5945    0.3480 C.ar    1  UNL1        0.0258
     48 C           0.5021    5.9725    0.1676 C.ar    1  UNL1       -0.0059
     49 C           0.0163    6.5132   -1.0265 C.ar    1  UNL1        0.1179
     50 C          -0.4865    5.6677   -2.0207 C.ar    1  UNL1       -0.0198
     51 C          -0.4929    4.2924   -1.8126 C.ar    1  UNL1       -0.0528
     52 H           1.3131   -5.5510    0.7004 H       1  UNL1        0.0639
     53 H           3.6504   -4.2497    0.7313 H       1  UNL1        0.0636
     54 H           0.8014   -1.8090   -1.0865 H       1  UNL1        0.1657
     55 H           4.5012    1.2355   -0.7923 H       1  UNL1        0.0636
     56 H           2.6874    3.1806   -0.9595 H       1  UNL1        0.0636
     57 H           0.7051   -0.3184    0.1937 H       1  UNL1        0.1653
     58 H          -2.6936    3.3845   -0.3301 H       1  UNL1        0.0634
     59 H          -4.6206    1.5369   -0.1876 H       1  UNL1        0.0634
     60 H          -4.1807   -4.1673    0.0696 H       1  UNL1        0.0636
     61 H          -1.9065   -5.5919    0.0829 H       1  UNL1        0.0639
     62 H          -1.0234   -1.4438   -0.2810 H       1  UNL1        0.1657
     63 H           0.8818    6.6316    0.9390 H       1  UNL1        0.0665
     64 H          -0.8648    6.0820   -2.9521 H       1  UNL1        0.0654
     65 H          -0.8768    3.6375   -2.5884 H       1  UNL1        0.0622
     66 O           0.0602    7.8670   -1.1580 O.3     1  UNL1       -0.5067
     67 H          -0.3093    8.1145   -2.0218 H       1  UNL1        0.2921
     68 BR          1.1230    3.9116    2.0144 Br      1  UNL1       -0.0499
@<TRIPOS>BOND
     1     1     7    1
     2     1     9    1
     3     1    35    1
     4     2    12    1
     5     2    14    1
     6     2    46    1
     7     3    17    1
     8     3    19    1
     9     3    24    1
    10     4     5   ar
    11     4     8   ar
    12     4    22    1
    13     5     6   ar
    14     5    52    1
    15     6     7   ar
    16     6    53    1
    17     7     8   ar
    18     8    54    1
    19     9    10   ar
    20     9    13   ar
    21    10    11   ar
    22    10    55    1
    23    11    12   ar
    24    11    56    1
    25    12    13   ar
    26    13    57    1
    27    14    15    2
    28    14    18    1
    29    15    16    1
    30    15    58    1
    31    16    17    2
    32    16    59    1
    33    17    18    1
    34    19    20   ar
    35    19    23   ar
    36    20    21   ar
    37    20    60    1
    38    21    22   ar
    39    21    61    1
    40    22    23   ar
    41    23    62    1
    42    24    25   ar
    43    24    29   ar
    44    25    26   ar
    45    25    30    1
    46    26    27   ar
    47    26    31    1
    48    27    28   ar
    49    27    32    1
    50    28    29   ar
    51    28    33    1
    52    29    34    1
    53    35    36   ar
    54    35    40   ar
    55    36    37   ar
    56    36    41    1
    57    37    38   ar
    58    37    42    1
    59    38    39   ar
    60    38    43    1
    61    39    40   ar
    62    39    44    1
    63    40    45    1
    64    46    47   ar
    65    46    51   ar
    66    47    48   ar
    67    47    68    1
    68    48    49   ar
    69    48    63    1
    70    49    50   ar
    71    49    66    1
    72    50    51   ar
    73    50    64    1
    74    51    65    1
    75    66    67    1
