@<TRIPOS>MOLECULE
F10_2_OH_3_5_I_TD
 68 75 0 0 0
SMALL
GASTEIGER

@<TRIPOS>ATOM
      1 C          -3.5230   -2.3509    0.2008 C.3     1  UNL1        0.1014
      2 C           0.0324    1.0528    0.0389 C.3     1  UNL1        0.0989
      3 C           3.3205   -2.5801   -0.0526 C.3     1  UNL1        0.1011
      4 C          -0.8647   -4.7985    0.2125 C.ar    1  UNL1        0.0631
      5 C          -1.9222   -5.6492   -0.1721 C.ar    1  UNL1       -0.0347
      6 C          -3.1008   -4.8970   -0.1915 C.ar    1  UNL1       -0.0392
      7 C          -2.7878   -3.5618    0.1715 C.ar    1  UNL1        0.0347
      8 N          -1.4307   -3.5543    0.4288 N.ar    1  UNL1       -0.3557
      9 C          -2.9037   -1.0901    0.2181 C.ar    1  UNL1        0.0344
     10 C          -3.4948    0.2046    0.3952 C.ar    1  UNL1       -0.0396
     11 C          -2.5018    1.1541    0.3486 C.ar    1  UNL1       -0.0396
     12 C          -1.2482    0.4938    0.1362 C.ar    1  UNL1        0.0342
     13 N          -1.5359   -0.8565    0.0840 N.ar    1  UNL1       -0.3596
     14 C           1.2562    0.3384   -0.0347 C.2     1  UNL1        0.0488
     15 C           2.5687    0.9678   -0.1147 C.2     1  UNL1       -0.0400
     16 C           3.4878   -0.0371   -0.1380 C.2     1  UNL1       -0.0400
     17 C           2.7493   -1.2863   -0.0779 C.2     1  UNL1        0.0489
     18 N           1.3947   -1.0189   -0.0200 N.pl3   1  UNL1       -0.2209
     19 C           2.5364   -3.7486    0.0835 C.ar    1  UNL1        0.0346
     20 C           2.7939   -5.1509    0.0046 C.ar    1  UNL1       -0.0392
     21 C           1.5722   -5.8150    0.0668 C.ar    1  UNL1       -0.0347
     22 C           0.5506   -4.8335    0.1937 C.ar    1  UNL1        0.0631
     23 N           1.1854   -3.6228    0.2335 N.ar    1  UNL1       -0.3557
     24 C           4.7873   -2.7414   -0.1923 C.ar    1  UNL1        0.0479
     25 C           5.5453   -3.3881    0.7914 C.ar    1  UNL1        0.1686
     26 C           6.9199   -3.5627    0.6722 C.ar    1  UNL1        0.1967
     27 C           7.5793   -3.0809   -0.4541 C.ar    1  UNL1        0.1991
     28 C           6.8568   -2.4354   -1.4527 C.ar    1  UNL1        0.1967
     29 C           5.4811   -2.2805   -1.3177 C.ar    1  UNL1        0.1686
     30 F           4.9522   -3.8546    1.9004 F       1  UNL1       -0.2020
     31 F           7.6128   -4.1791    1.6381 F       1  UNL1       -0.1993
     32 F           8.9006   -3.2383   -0.5767 F       1  UNL1       -0.1993
     33 F           7.4871   -1.9817   -2.5433 F       1  UNL1       -0.1993
     34 F           4.8229   -1.6768   -2.3172 F       1  UNL1       -0.2020
     35 C          -5.0076   -2.4163    0.2084 C.ar    1  UNL1        0.0481
     36 C          -5.7299   -2.9184   -0.8782 C.ar    1  UNL1        0.1687
     37 C          -7.1184   -3.0036   -0.8688 C.ar    1  UNL1        0.1967
     38 C          -7.8269   -2.5647    0.2453 C.ar    1  UNL1        0.1991
     39 C          -7.1399   -2.0527    1.3418 C.ar    1  UNL1        0.1967
     40 C          -5.7505   -1.9929    1.3152 C.ar    1  UNL1        0.1687
     41 F          -5.0855   -3.3435   -1.9761 F       1  UNL1       -0.2020
     42 F          -7.7753   -3.4916   -1.9280 F       1  UNL1       -0.1993
     43 F          -9.1610   -2.6338    0.2623 F       1  UNL1       -0.1993
     44 F          -7.8173   -1.6335    2.4174 F       1  UNL1       -0.1993
     45 F          -5.1241   -1.5060    2.3973 F       1  UNL1       -0.2020
     46 C           0.1028    2.5459    0.0574 C.ar    1  UNL1        0.0152
     47 C          -0.2910    3.2900   -1.0762 C.ar    1  UNL1        0.1344
     48 C          -0.1993    4.6881   -1.0252 C.ar    1  UNL1        0.0560
     49 C           0.2687    5.3594    0.1031 C.ar    1  UNL1       -0.0319
     50 C           0.6514    4.6043    1.2072 C.ar    1  UNL1        0.0149
     51 C           0.5710    3.2144    1.1913 C.ar    1  UNL1       -0.0406
     52 H          -1.8145   -6.6807   -0.4784 H       1  UNL1        0.0639
     53 H          -4.0712   -5.2462   -0.5122 H       1  UNL1        0.0636
     54 H          -1.0221   -2.8803    1.0632 H       1  UNL1        0.1657
     55 H          -4.5467    0.3813    0.5655 H       1  UNL1        0.0636
     56 H          -2.6172    2.2207    0.4770 H       1  UNL1        0.0636
     57 H          -0.8773   -1.4974   -0.3363 H       1  UNL1        0.1653
     58 H           2.7572    2.0313   -0.1505 H       1  UNL1        0.0634
     59 H           4.5639    0.0615   -0.1743 H       1  UNL1        0.0634
     60 H           3.7688   -5.6052   -0.1041 H       1  UNL1        0.0636
     61 H           1.4124   -6.8840    0.0354 H       1  UNL1        0.0639
     62 H           0.7956   -2.6745    0.1615 H       1  UNL1        0.1657
     63 H           0.8689    2.6303    2.0537 H       1  UNL1        0.0632
     64 H           0.3294    6.4402    0.1122 H       1  UNL1        0.0639
     65 O          -0.7273    2.5956   -2.1507 O.3     1  UNL1       -0.5054
     66 H          -0.9526    3.2122   -2.8711 H       1  UNL1        0.2922
     67 I           1.3708    5.6021    2.9712 I       1  UNL1       -0.0438
     68 I          -0.7804    5.8485   -2.7472 I       1  UNL1       -0.0400
@<TRIPOS>BOND
     1     1     7    1
     2     1     9    1
     3     1    35    1
     4     2    12    1
     5     2    14    1
     6     2    46    1
     7     3    17    1
     8     3    19    1
     9     3    24    1
    10     4     5   ar
    11     4     8   ar
    12     4    22    1
    13     5     6   ar
    14     5    52    1
    15     6     7   ar
    16     6    53    1
    17     7     8   ar
    18     8    54    1
    19     9    10   ar
    20     9    13   ar
    21    10    11   ar
    22    10    55    1
    23    11    12   ar
    24    11    56    1
    25    12    13   ar
    26    13    57    1
    27    14    15    2
    28    14    18    1
    29    15    16    1
    30    15    58    1
    31    16    17    2
    32    16    59    1
    33    17    18    1
    34    19    20   ar
    35    19    23   ar
    36    20    21   ar
    37    20    60    1
    38    21    22   ar
    39    21    61    1
    40    22    23   ar
    41    23    62    1
    42    24    25   ar
    43    24    29   ar
    44    25    26   ar
    45    25    30    1
    46    26    27   ar
    47    26    31    1
    48    27    28   ar
    49    27    32    1
    50    28    29   ar
    51    28    33    1
    52    29    34    1
    53    35    36   ar
    54    35    40   ar
    55    36    37   ar
    56    36    41    1
    57    37    38   ar
    58    37    42    1
    59    38    39   ar
    60    38    43    1
    61    39    40   ar
    62    39    44    1
    63    40    45    1
    64    46    47   ar
    65    46    51   ar
    66    47    48   ar
    67    47    65    1
    68    48    49   ar
    69    48    68    1
    70    49    50   ar
    71    49    64    1
    72    50    51   ar
    73    50    67    1
    74    51    63    1
    75    65    66    1
