@<TRIPOS>MOLECULE
F10_2_OH_5_Br_TD
 68 75 0 0 0
SMALL
GASTEIGER

@<TRIPOS>ATOM
      1 C           3.6104   -1.1955   -0.1344 C.3     1  UNL1        0.1014
      2 C          -0.0497    2.0452    0.4585 C.3     1  UNL1        0.0989
      3 C          -3.2117   -1.6628   -0.0719 C.3     1  UNL1        0.1011
      4 C           1.0423   -3.6899   -0.6086 C.ar    1  UNL1        0.0631
      5 C           2.1197   -4.5580   -0.3342 C.ar    1  UNL1       -0.0347
      6 C           3.2692   -3.7820   -0.1559 C.ar    1  UNL1       -0.0392
      7 C           2.9177   -2.4167   -0.3117 C.ar    1  UNL1        0.0347
      8 N           1.5684   -2.4103   -0.6050 N.ar    1  UNL1       -0.3557
      9 C           2.9523    0.0365    0.0127 C.ar    1  UNL1        0.0344
     10 C           3.5054    1.3589    0.0288 C.ar    1  UNL1       -0.0396
     11 C           2.4828    2.2632    0.1869 C.ar    1  UNL1       -0.0396
     12 C           1.2476    1.5443    0.2854 C.ar    1  UNL1        0.0342
     13 N           1.5762    0.2093    0.1504 N.ar    1  UNL1       -0.3596
     14 C          -1.2478    1.2843    0.4206 C.2     1  UNL1        0.0488
     15 C          -2.5801    1.8417    0.6163 C.2     1  UNL1       -0.0400
     16 C          -3.4641    0.8177    0.4635 C.2     1  UNL1       -0.0400
     17 C          -2.6845   -0.3753    0.1825 C.2     1  UNL1        0.0489
     18 N          -1.3398   -0.0549    0.1730 N.pl3   1  UNL1       -0.2209
     19 C          -2.3906   -2.7685   -0.3917 C.ar    1  UNL1        0.0346
     20 C          -2.6070   -4.1689   -0.5658 C.ar    1  UNL1       -0.0392
     21 C          -1.3653   -4.7801   -0.7125 C.ar    1  UNL1       -0.0347
     22 C          -0.3710   -3.7669   -0.6345 C.ar    1  UNL1        0.0631
     23 N          -1.0413   -2.5845   -0.4807 N.ar    1  UNL1       -0.3557
     24 C          -4.6740   -1.8934    0.0195 C.ar    1  UNL1        0.0479
     25 C          -5.4046   -2.3879   -1.0675 C.ar    1  UNL1        0.1686
     26 C          -6.7722   -2.6299   -0.9960 C.ar    1  UNL1        0.1967
     27 C          -7.4554   -2.3719    0.1876 C.ar    1  UNL1        0.1991
     28 C          -6.7618   -1.8808    1.2888 C.ar    1  UNL1        0.1967
     29 C          -5.3920   -1.6582    1.1983 C.ar    1  UNL1        0.1686
     30 F          -4.7910   -2.6375   -2.2344 F       1  UNL1       -0.2020
     31 F          -7.4349   -3.0971   -2.0619 F       1  UNL1       -0.1993
     32 F          -8.7708   -2.5948    0.2673 F       1  UNL1       -0.1993
     33 F          -7.4129   -1.6435    2.4348 F       1  UNL1       -0.1993
     34 F          -4.7639   -1.2111    2.2953 F       1  UNL1       -0.2020
     35 C           5.0956   -1.2228   -0.0885 C.ar    1  UNL1        0.0481
     36 C           5.7851   -1.8390    0.9596 C.ar    1  UNL1        0.1687
     37 C           7.1744   -1.8888    1.0051 C.ar    1  UNL1        0.1967
     38 C           7.9164   -1.2971   -0.0120 C.ar    1  UNL1        0.1991
     39 C           7.2627   -0.6694   -1.0676 C.ar    1  UNL1        0.1967
     40 C           5.8723   -0.6470   -1.0982 C.ar    1  UNL1        0.1687
     41 F           5.1044   -2.4135    1.9636 F       1  UNL1       -0.2020
     42 F           7.7997   -2.4895    2.0252 F       1  UNL1       -0.1993
     43 F           9.2517   -1.3316    0.0247 F       1  UNL1       -0.1993
     44 F           7.9734   -0.1039   -2.0512 F       1  UNL1       -0.1993
     45 F           5.2781   -0.0414   -2.1376 F       1  UNL1       -0.2020
     46 C          -0.1656    3.5199    0.6624 C.ar    1  UNL1        0.0142
     47 C           0.3140    4.1356    1.8354 C.ar    1  UNL1        0.1214
     48 C           0.1968    5.5187    2.0053 C.ar    1  UNL1       -0.0188
     49 C          -0.4038    6.3065    1.0262 C.ar    1  UNL1       -0.0443
     50 C          -0.8829    5.6971   -0.1289 C.ar    1  UNL1        0.0184
     51 C          -0.7644    4.3231   -0.3148 C.ar    1  UNL1       -0.0398
     52 H           2.0413   -5.6282   -0.2002 H       1  UNL1        0.0639
     53 H           4.2435   -4.1466    0.1352 H       1  UNL1        0.0636
     54 H           1.1508   -1.6577   -1.1374 H       1  UNL1        0.1657
     55 H           4.5535    1.5874   -0.0998 H       1  UNL1        0.0636
     56 H           2.5664    3.3399    0.2094 H       1  UNL1        0.0636
     57 H           0.9290   -0.5025    0.4611 H       1  UNL1        0.1653
     58 H          -2.8048    2.8743    0.8413 H       1  UNL1        0.0634
     59 H          -4.5424    0.8721    0.5211 H       1  UNL1        0.0634
     60 H          -3.5694   -4.6609   -0.5645 H       1  UNL1        0.0636
     61 H          -1.1746   -5.8337   -0.8637 H       1  UNL1        0.0639
     62 H          -0.6789   -1.6517   -0.2490 H       1  UNL1        0.1657
     63 H           0.5708    5.9834    2.9148 H       1  UNL1        0.0654
     64 H          -1.1353    3.8598   -1.2216 H       1  UNL1        0.0633
     65 H          -0.4955    7.3778    1.1658 H       1  UNL1        0.0630
     66 O           0.8784    3.3385    2.7849 O.3     1  UNL1       -0.5065
     67 H           1.1492    3.8878    3.5389 H       1  UNL1        0.2921
     68 BR         -1.7137    6.7628   -1.4862 Br      1  UNL1       -0.0503
@<TRIPOS>BOND
     1     1     7    1
     2     1     9    1
     3     1    35    1
     4     2    12    1
     5     2    14    1
     6     2    46    1
     7     3    17    1
     8     3    19    1
     9     3    24    1
    10     4     5   ar
    11     4     8   ar
    12     4    22    1
    13     5     6   ar
    14     5    52    1
    15     6     7   ar
    16     6    53    1
    17     7     8   ar
    18     8    54    1
    19     9    10   ar
    20     9    13   ar
    21    10    11   ar
    22    10    55    1
    23    11    12   ar
    24    11    56    1
    25    12    13   ar
    26    13    57    1
    27    14    15    2
    28    14    18    1
    29    15    16    1
    30    15    58    1
    31    16    17    2
    32    16    59    1
    33    17    18    1
    34    19    20   ar
    35    19    23   ar
    36    20    21   ar
    37    20    60    1
    38    21    22   ar
    39    21    61    1
    40    22    23   ar
    41    23    62    1
    42    24    25   ar
    43    24    29   ar
    44    25    26   ar
    45    25    30    1
    46    26    27   ar
    47    26    31    1
    48    27    28   ar
    49    27    32    1
    50    28    29   ar
    51    28    33    1
    52    29    34    1
    53    35    36   ar
    54    35    40   ar
    55    36    37   ar
    56    36    41    1
    57    37    38   ar
    58    37    42    1
    59    38    39   ar
    60    38    43    1
    61    39    40   ar
    62    39    44    1
    63    40    45    1
    64    46    47   ar
    65    46    51   ar
    66    47    48   ar
    67    47    66    1
    68    48    49   ar
    69    48    63    1
    70    49    50   ar
    71    49    65    1
    72    50    51   ar
    73    50    68    1
    74    51    64    1
    75    66    67    1
