@<TRIPOS>MOLECULE
F10_2_OH_5_Cl_TD
 68 75 0 0 0
SMALL
GASTEIGER

@<TRIPOS>ATOM
      1 C           3.4839   -1.0480   -0.1019 C.3     1  UNL1        0.1014
      2 C          -0.0267    2.3912    0.2291 C.3     1  UNL1        0.0989
      3 C          -3.3567   -1.1914   -0.0887 C.3     1  UNL1        0.1011
      4 C           0.8018   -3.4470   -0.4156 C.ar    1  UNL1        0.0631
      5 C           1.8326   -4.3415   -0.0618 C.ar    1  UNL1       -0.0347
      6 C           3.0179   -3.6108    0.0682 C.ar    1  UNL1       -0.0392
      7 C           2.7350   -2.2462   -0.1935 C.ar    1  UNL1        0.0347
      8 N           1.3896   -2.1966   -0.5031 N.ar    1  UNL1       -0.3557
      9 C           2.8812    0.2194   -0.0434 C.ar    1  UNL1        0.0344
     10 C           3.4967    1.5136   -0.0925 C.ar    1  UNL1       -0.0396
     11 C           2.5171    2.4726   -0.0017 C.ar    1  UNL1       -0.0396
     12 C           1.2472    1.8197    0.1146 C.ar    1  UNL1        0.0342
     13 N           1.5134    0.4649    0.0617 N.ar    1  UNL1       -0.3596
     14 C          -1.2597    1.6876    0.2192 C.2     1  UNL1        0.0488
     15 C          -2.5662    2.3207    0.3485 C.2     1  UNL1       -0.0400
     16 C          -3.4964    1.3308    0.2572 C.2     1  UNL1       -0.0400
     17 C          -2.7714    0.0851    0.0786 C.2     1  UNL1        0.0489
     18 N          -1.4132    0.3400    0.0670 N.pl3   1  UNL1       -0.2209
     19 C          -2.5862   -2.3542   -0.3174 C.ar    1  UNL1        0.0346
     20 C          -2.8670   -3.7524   -0.3871 C.ar    1  UNL1       -0.0392
     21 C          -1.6540   -4.4297   -0.4670 C.ar    1  UNL1       -0.0347
     22 C          -0.6134   -3.4607   -0.4548 C.ar    1  UNL1        0.0631
     23 N          -1.2288   -2.2404   -0.4012 N.ar    1  UNL1       -0.3557
     24 C          -4.8287   -1.3446    0.0016 C.ar    1  UNL1        0.0479
     25 C          -5.5733   -1.8780   -1.0569 C.ar    1  UNL1        0.1686
     26 C          -6.9516   -2.0477   -0.9837 C.ar    1  UNL1        0.1967
     27 C          -7.6302   -1.6762    0.1722 C.ar    1  UNL1        0.1991
     28 C          -6.9223   -1.1431    1.2445 C.ar    1  UNL1        0.1967
     29 C          -5.5427   -0.9933    1.1535 C.ar    1  UNL1        0.1686
     30 F          -4.9629   -2.2376   -2.1962 F       1  UNL1       -0.2020
     31 F          -7.6291   -2.5538   -2.0223 F       1  UNL1       -0.1993
     32 F          -8.9554   -1.8306    0.2527 F       1  UNL1       -0.1993
     33 F          -7.5697   -0.7961    2.3642 F       1  UNL1       -0.1993
     34 F          -4.9000   -0.5034    2.2234 F       1  UNL1       -0.2020
     35 C           4.9666   -1.1378   -0.0523 C.ar    1  UNL1        0.0481
     36 C           5.6315   -1.7319    1.0243 C.ar    1  UNL1        0.1687
     37 C           7.0171   -1.8458    1.0691 C.ar    1  UNL1        0.1967
     38 C           7.7822   -1.3420    0.0224 C.ar    1  UNL1        0.1991
     39 C           7.1542   -0.7368   -1.0614 C.ar    1  UNL1        0.1967
     40 C           5.7664   -0.6494   -1.0903 C.ar    1  UNL1        0.1687
     41 F           4.9305   -2.2229    2.0584 F       1  UNL1       -0.2020
     42 F           7.6173   -2.4234    2.1174 F       1  UNL1       -0.1993
     43 F           9.1145   -1.4381    0.0583 F       1  UNL1       -0.1993
     44 F           7.8862   -0.2547   -2.0734 F       1  UNL1       -0.1993
     45 F           5.1991   -0.0670   -2.1580 F       1  UNL1       -0.2020
     46 C          -0.0765    3.8810    0.3278 C.ar    1  UNL1        0.0145
     47 C           0.3852    4.5535    1.4759 C.ar    1  UNL1        0.1214
     48 C           0.3227    5.9485    1.5496 C.ar    1  UNL1       -0.0185
     49 C          -0.1995    6.6933    0.4949 C.ar    1  UNL1       -0.0399
     50 C          -0.6577    6.0273   -0.6378 C.ar    1  UNL1        0.0415
     51 C          -0.5968    4.6395   -0.7264 C.ar    1  UNL1       -0.0354
     52 H           1.7008   -5.3930    0.1540 H       1  UNL1        0.0639
     53 H           3.9704   -3.9998    0.3973 H       1  UNL1        0.0636
     54 H           1.0202   -1.4713   -1.1049 H       1  UNL1        0.1657
     55 H           4.5566    1.6849   -0.2110 H       1  UNL1        0.0636
     56 H           2.6523    3.5439   -0.0353 H       1  UNL1        0.0636
     57 H           0.8276   -0.1975    0.3970 H       1  UNL1        0.1653
     58 H          -2.7436    3.3770    0.4909 H       1  UNL1        0.0634
     59 H          -4.5716    1.4394    0.2918 H       1  UNL1        0.0634
     60 H          -3.8517   -4.1977   -0.3614 H       1  UNL1        0.0636
     61 H          -1.5119   -5.4996   -0.5346 H       1  UNL1        0.0639
     62 H          -0.8245   -1.3119   -0.2282 H       1  UNL1        0.1657
     63 H           0.6780    6.4570    2.4429 H       1  UNL1        0.0654
     64 H          -0.9529    4.1328   -1.6163 H       1  UNL1        0.0636
     65 H          -0.2485    7.7748    0.5572 H       1  UNL1        0.0633
     66 O           0.8783    3.7986    2.4971 O.3     1  UNL1       -0.5065
     67 H           1.1425    4.3851    3.2249 H       1  UNL1        0.2921
     68 CL         -1.3201    6.9535   -1.9843 Cl      1  UNL1       -0.0835
@<TRIPOS>BOND
     1     1     7    1
     2     1     9    1
     3     1    35    1
     4     2    12    1
     5     2    14    1
     6     2    46    1
     7     3    17    1
     8     3    19    1
     9     3    24    1
    10     4     5   ar
    11     4     8   ar
    12     4    22    1
    13     5     6   ar
    14     5    52    1
    15     6     7   ar
    16     6    53    1
    17     7     8   ar
    18     8    54    1
    19     9    10   ar
    20     9    13   ar
    21    10    11   ar
    22    10    55    1
    23    11    12   ar
    24    11    56    1
    25    12    13   ar
    26    13    57    1
    27    14    15    2
    28    14    18    1
    29    15    16    1
    30    15    58    1
    31    16    17    2
    32    16    59    1
    33    17    18    1
    34    19    20   ar
    35    19    23   ar
    36    20    21   ar
    37    20    60    1
    38    21    22   ar
    39    21    61    1
    40    22    23   ar
    41    23    62    1
    42    24    25   ar
    43    24    29   ar
    44    25    26   ar
    45    25    30    1
    46    26    27   ar
    47    26    31    1
    48    27    28   ar
    49    27    32    1
    50    28    29   ar
    51    28    33    1
    52    29    34    1
    53    35    36   ar
    54    35    40   ar
    55    36    37   ar
    56    36    41    1
    57    37    38   ar
    58    37    42    1
    59    38    39   ar
    60    38    43    1
    61    39    40   ar
    62    39    44    1
    63    40    45    1
    64    46    47   ar
    65    46    51   ar
    66    47    48   ar
    67    47    66    1
    68    48    49   ar
    69    48    63    1
    70    49    50   ar
    71    49    65    1
    72    50    51   ar
    73    50    68    1
    74    51    64    1
    75    66    67    1
