@<TRIPOS>MOLECULE
F10_2_OH_5_I_TD
 68 75 0 0 0
SMALL
GASTEIGER

@<TRIPOS>ATOM
      1 C           3.7966   -1.2216   -0.1811 C.3     1  UNL1        0.1014
      2 C          -0.0867    1.7007    0.6240 C.3     1  UNL1        0.0989
      3 C          -2.9765   -2.1938   -0.0945 C.3     1  UNL1        0.1011
      4 C           1.4064   -3.8527   -0.8211 C.ar    1  UNL1        0.0631
      5 C           2.5429   -4.6596   -0.6011 C.ar    1  UNL1       -0.0347
      6 C           3.6361   -3.8184   -0.3739 C.ar    1  UNL1       -0.0392
      7 C           3.1893   -2.4733   -0.4420 C.ar    1  UNL1        0.0347
      8 N           1.8425   -2.5424   -0.7390 N.ar    1  UNL1       -0.3557
      9 C           3.0519   -0.0529    0.0492 C.ar    1  UNL1        0.0344
     10 C           3.5070    1.3028    0.1475 C.ar    1  UNL1       -0.0396
     11 C           2.4216    2.1180    0.3636 C.ar    1  UNL1       -0.0396
     12 C           1.2425    1.3059    0.4200 C.ar    1  UNL1        0.0342
     13 N           1.6679    0.0087    0.2021 N.ar    1  UNL1       -0.3596
     14 C          -1.2271    0.8581    0.5460 C.2     1  UNL1        0.0488
     15 C          -2.5948    1.3055    0.7801 C.2     1  UNL1       -0.0400
     16 C          -3.4032    0.2276    0.5817 C.2     1  UNL1       -0.0400
     17 C          -2.5414   -0.8872    0.2293 C.2     1  UNL1        0.0489
     18 N          -1.2246   -0.4688    0.2266 N.pl3   1  UNL1       -0.2209
     19 C          -2.0816   -3.2092   -0.5039 C.ar    1  UNL1        0.0346
     20 C          -2.1946   -4.6104   -0.7554 C.ar    1  UNL1       -0.0392
     21 C          -0.9132   -5.1145   -0.9587 C.ar    1  UNL1       -0.0347
     22 C           0.0023   -4.0327   -0.8415 C.ar    1  UNL1        0.0631
     23 N          -0.7526   -2.9155   -0.6110 N.ar    1  UNL1       -0.3557
     24 C          -4.4128   -2.5421    0.0215 C.ar    1  UNL1        0.0479
     25 C          -5.1394   -3.0240   -1.0738 C.ar    1  UNL1        0.1686
     26 C          -6.4818   -3.3750   -0.9773 C.ar    1  UNL1        0.1967
     27 C          -7.1410   -3.2452    0.2409 C.ar    1  UNL1        0.1991
     28 C          -6.4494   -2.7706    1.3509 C.ar    1  UNL1        0.1967
     29 C          -5.1045   -2.4355    1.2345 C.ar    1  UNL1        0.1686
     30 F          -4.5486   -3.1515   -2.2713 F       1  UNL1       -0.2020
     31 F          -7.1441   -3.8263   -2.0501 F       1  UNL1       -0.1993
     32 F          -8.4316   -3.5758    0.3453 F       1  UNL1       -0.1993
     33 F          -7.0776   -2.6564    2.5280 F       1  UNL1       -0.1993
     34 F          -4.4726   -2.0102    2.3375 F       1  UNL1       -0.2020
     35 C           5.2799   -1.1458   -0.1213 C.ar    1  UNL1        0.0481
     36 C           6.0023   -1.7778    0.8953 C.ar    1  UNL1        0.1687
     37 C           7.3910   -1.7264    0.9589 C.ar    1  UNL1        0.1967
     38 C           8.0973   -1.0158   -0.0066 C.ar    1  UNL1        0.1991
     39 C           7.4092   -0.3698   -1.0289 C.ar    1  UNL1        0.1967
     40 C           6.0212   -0.4482   -1.0796 C.ar    1  UNL1        0.1687
     41 F           5.3567   -2.4653    1.8498 F       1  UNL1       -0.2020
     42 F           8.0491   -2.3457    1.9467 F       1  UNL1       -0.1993
     43 F           9.4308   -0.9537    0.0480 F       1  UNL1       -0.1993
     44 F           8.0856    0.3122   -1.9614 F       1  UNL1       -0.1993
     45 F           5.3952    0.1815   -2.0854 F       1  UNL1       -0.2020
     46 C          -0.3093    3.1491    0.9120 C.ar    1  UNL1        0.0141
     47 C           0.1188    3.7271    2.1233 C.ar    1  UNL1        0.1214
     48 C          -0.1052    5.0839    2.3760 C.ar    1  UNL1       -0.0189
     49 C          -0.7597    5.8835    1.4402 C.ar    1  UNL1       -0.0451
     50 C          -1.1851    5.3105    0.2454 C.ar    1  UNL1        0.0139
     51 C          -0.9632    3.9628   -0.0226 C.ar    1  UNL1       -0.0406
     52 H           2.5390   -5.7391   -0.5359 H       1  UNL1        0.0639
     53 H           4.6354   -4.1315   -0.1084 H       1  UNL1        0.0636
     54 H           1.3652   -1.7817   -1.2059 H       1  UNL1        0.1657
     55 H           4.5345    1.6153    0.0308 H       1  UNL1        0.0636
     56 H           2.4274    3.1945    0.4517 H       1  UNL1        0.0636
     57 H           1.0806   -0.7687    0.4720 H       1  UNL1        0.1653
     58 H          -2.8915    2.3058    1.0613 H       1  UNL1        0.0634
     59 H          -4.4820    0.1982    0.6487 H       1  UNL1        0.0634
     60 H          -3.1163   -5.1748   -0.7652 H       1  UNL1        0.0636
     61 H          -0.6460   -6.1402   -1.1731 H       1  UNL1        0.0639
     62 H          -0.4566   -1.9760   -0.3202 H       1  UNL1        0.1657
     63 H           0.2253    5.5191    3.3167 H       1  UNL1        0.0654
     64 H          -1.2915    3.5219   -0.9566 H       1  UNL1        0.0632
     65 H          -0.9307    6.9331    1.6510 H       1  UNL1        0.0629
     66 O           0.7411    2.9192    3.0256 O.3     1  UNL1       -0.5065
     67 H           0.9707    3.4410    3.8124 H       1  UNL1        0.2921
     68 I          -2.2017    6.5260   -1.2125 I       1  UNL1       -0.0438
@<TRIPOS>BOND
     1     1     7    1
     2     1     9    1
     3     1    35    1
     4     2    12    1
     5     2    14    1
     6     2    46    1
     7     3    17    1
     8     3    19    1
     9     3    24    1
    10     4     5   ar
    11     4     8   ar
    12     4    22    1
    13     5     6   ar
    14     5    52    1
    15     6     7   ar
    16     6    53    1
    17     7     8   ar
    18     8    54    1
    19     9    10   ar
    20     9    13   ar
    21    10    11   ar
    22    10    55    1
    23    11    12   ar
    24    11    56    1
    25    12    13   ar
    26    13    57    1
    27    14    15    2
    28    14    18    1
    29    15    16    1
    30    15    58    1
    31    16    17    2
    32    16    59    1
    33    17    18    1
    34    19    20   ar
    35    19    23   ar
    36    20    21   ar
    37    20    60    1
    38    21    22   ar
    39    21    61    1
    40    22    23   ar
    41    23    62    1
    42    24    25   ar
    43    24    29   ar
    44    25    26   ar
    45    25    30    1
    46    26    27   ar
    47    26    31    1
    48    27    28   ar
    49    27    32    1
    50    28    29   ar
    51    28    33    1
    52    29    34    1
    53    35    36   ar
    54    35    40   ar
    55    36    37   ar
    56    36    41    1
    57    37    38   ar
    58    37    42    1
    59    38    39   ar
    60    38    43    1
    61    39    40   ar
    62    39    44    1
    63    40    45    1
    64    46    47   ar
    65    46    51   ar
    66    47    48   ar
    67    47    66    1
    68    48    49   ar
    69    48    63    1
    70    49    50   ar
    71    49    65    1
    72    50    51   ar
    73    50    68    1
    74    51    64    1
    75    66    67    1
