@<TRIPOS>MOLECULE
F10_3_4_5_trimethoxyphenyl_TD
 79 86 0 0 0
SMALL
GASTEIGER

@<TRIPOS>ATOM
      1 C          -3.4649   -1.6371   -0.0836 C.3     1  UNL1        0.1014
      2 C           0.0202    1.8583   -0.0921 C.3     1  UNL1        0.0956
      3 C           3.3764   -1.7177    0.0088 C.3     1  UNL1        0.1011
      4 C          -0.7585   -4.0265   -0.1986 C.ar    1  UNL1        0.0631
      5 C          -1.7779   -4.8903    0.2560 C.ar    1  UNL1       -0.0347
      6 C          -2.9674   -4.1602    0.3223 C.ar    1  UNL1       -0.0392
      7 C          -2.6998   -2.8290   -0.0861 C.ar    1  UNL1        0.0347
      8 N          -1.3622   -2.8015   -0.4184 N.ar    1  UNL1       -0.3557
      9 C          -2.8698   -0.3621   -0.1423 C.ar    1  UNL1        0.0344
     10 C          -3.4889    0.9018   -0.4007 C.ar    1  UNL1       -0.0396
     11 C          -2.5189    1.8758   -0.4080 C.ar    1  UNL1       -0.0396
     12 C          -1.2504    1.2611   -0.1468 C.ar    1  UNL1        0.0341
     13 N          -1.5113   -0.0904   -0.0125 N.ar    1  UNL1       -0.3596
     14 C           1.2581    1.1649   -0.0114 C.2     1  UNL1        0.0487
     15 C           2.5588    1.8138    0.0933 C.2     1  UNL1       -0.0400
     16 C           3.4951    0.8254    0.1178 C.2     1  UNL1       -0.0400
     17 C           2.7800   -0.4346    0.0395 C.2     1  UNL1        0.0489
     18 N           1.4218   -0.1914   -0.0287 N.pl3   1  UNL1       -0.2209
     19 C           2.6181   -2.9007   -0.1306 C.ar    1  UNL1        0.0346
     20 C           2.9064   -4.2963   -0.0403 C.ar    1  UNL1       -0.0392
     21 C           1.6996   -4.9869   -0.0864 C.ar    1  UNL1       -0.0347
     22 C           0.6562   -4.0291   -0.2149 C.ar    1  UNL1        0.0631
     23 N           1.2639   -2.8054   -0.2771 N.ar    1  UNL1       -0.3557
     24 C           6.9079   -1.5186    1.4172 C.ar    1  UNL1        0.1967
     25 C           5.5299   -1.3888    1.2807 C.ar    1  UNL1        0.1686
     26 C           4.8459   -1.8517    0.1502 C.ar    1  UNL1        0.0479
     27 C           5.6186   -2.4763   -0.8362 C.ar    1  UNL1        0.1686
     28 C           6.9956   -2.6276   -0.7155 C.ar    1  UNL1        0.1967
     29 C          -0.5984    5.5066    0.7750 C.ar    1  UNL1        0.1655
     30 C          -0.6020    4.1092    0.8246 C.ar    1  UNL1       -0.0116
     31 C           0.0482    3.3488   -0.1532 C.ar    1  UNL1       -0.0212
     32 C           0.7316    4.0100   -1.1845 C.ar    1  UNL1       -0.0116
     33 C           0.7504    5.4007   -1.2361 C.ar    1  UNL1        0.1655
     34 C          -7.0498   -2.6869   -0.7809 C.ar    1  UNL1        0.1967
     35 C          -5.6681   -2.5589   -0.8658 C.ar    1  UNL1        0.1687
     36 C          -4.9352   -1.7432    0.0086 C.ar    1  UNL1        0.0481
     37 C          -5.6732   -1.0586    0.9853 C.ar    1  UNL1        0.1687
     38 C          -7.0566   -1.1619    1.0783 C.ar    1  UNL1        0.1967
     39 H          -1.6315   -5.9123    0.5780 H       1  UNL1        0.0639
     40 H          -3.9171   -4.5157    0.6970 H       1  UNL1        0.0636
     41 H          -4.5415    1.0355   -0.6057 H       1  UNL1        0.0636
     42 H          -2.6577    2.9271   -0.6106 H       1  UNL1        0.0636
     43 H           2.7286    2.8790    0.1479 H       1  UNL1        0.0634
     44 H           4.5687    0.9432    0.1715 H       1  UNL1        0.0634
     45 H           3.8919   -4.7275    0.0678 H       1  UNL1        0.0636
     46 H           1.5627   -6.0586   -0.0407 H       1  UNL1        0.0639
     47 C          -7.7490   -1.9825    0.1938 C.ar    1  UNL1        0.1991
     48 C           0.0759    6.1648   -0.2666 C.ar    1  UNL1        0.2035
     49 C           7.6441   -2.1431    0.4156 C.ar    1  UNL1        0.1991
     50 F          -9.0776   -2.0941    0.2804 F       1  UNL1       -0.1993
     51 F          -7.7231   -0.4943    2.0286 F       1  UNL1       -0.1993
     52 F          -5.0502   -0.2843    1.8857 F       1  UNL1       -0.2020
     53 F          -7.7120   -3.4685   -1.6433 F       1  UNL1       -0.1993
     54 F          -5.0436   -3.2371   -1.8399 F       1  UNL1       -0.2020
     55 F           4.8592   -0.8060    2.2848 F       1  UNL1       -0.2020
     56 F           7.5274   -1.0633    2.5138 F       1  UNL1       -0.1993
     57 F           7.7014   -3.2232   -1.6856 F       1  UNL1       -0.1993
     58 F           8.9682   -2.2772    0.5399 F       1  UNL1       -0.1993
     59 F           5.0369   -2.9451   -1.9505 F       1  UNL1       -0.2020
     60 O           0.0748    7.5393   -0.3420 O.3     1  UNL1       -0.4885
     61 C          -0.8396    8.0596   -1.3160 C.3     1  UNL1        0.0791
     62 H          -0.5924    7.6962   -2.3189 H       1  UNL1        0.0660
     63 H          -1.8718    7.7843   -1.0670 H       1  UNL1        0.0660
     64 H          -0.7350    9.1468   -1.2840 H       1  UNL1        0.0660
     65 H          -1.1206    3.6283    1.6464 H       1  UNL1        0.0658
     66 H           1.2405    3.4524   -1.9629 H       1  UNL1        0.0658
     67 O          -1.3176    6.1583    1.7359 O.3     1  UNL1       -0.4913
     68 C          -0.7173    7.2802    2.3934 C.3     1  UNL1        0.0790
     69 H           0.3424    7.0925    2.6019 H       1  UNL1        0.0660
     70 H          -0.8106    8.1953    1.8042 H       1  UNL1        0.0660
     71 H          -1.2556    7.3903    3.3387 H       1  UNL1        0.0660
     72 O           1.3713    6.0132   -2.2981 O.3     1  UNL1       -0.4913
     73 C           2.5305    6.7826   -1.9561 C.3     1  UNL1        0.0790
     74 H           2.9210    7.1771   -2.8972 H       1  UNL1        0.0660
     75 H           2.2799    7.6095   -1.2851 H       1  UNL1        0.0660
     76 H           3.2918    6.1455   -1.4873 H       1  UNL1        0.0660
     77 H          -0.9864   -2.1116   -1.0559 H       1  UNL1        0.1657
     78 H           0.8516   -1.8661   -0.2130 H       1  UNL1        0.1657
     79 H          -0.8241   -0.7104    0.3938 H       1  UNL1        0.1653
@<TRIPOS>BOND
     1     1     7    1
     2     1     9    1
     3     1    36    1
     4     2    12    1
     5     2    14    1
     6     2    31    1
     7     3    17    1
     8     3    19    1
     9     3    26    1
    10     4     5   ar
    11     4     8   ar
    12     4    22    1
    13     5     6   ar
    14     5    39    1
    15     6     7   ar
    16     6    40    1
    17     7     8   ar
    18     8    77    1
    19     9    10   ar
    20     9    13   ar
    21    10    11   ar
    22    10    41    1
    23    11    12   ar
    24    11    42    1
    25    12    13   ar
    26    13    79    1
    27    14    15    2
    28    14    18    1
    29    15    16    1
    30    15    43    1
    31    16    17    2
    32    16    44    1
    33    17    18    1
    34    19    20   ar
    35    19    23   ar
    36    20    21   ar
    37    20    45    1
    38    21    22   ar
    39    21    46    1
    40    22    23   ar
    41    23    78    1
    42    24    25   ar
    43    24    49   ar
    44    24    56    1
    45    25    26   ar
    46    25    55    1
    47    26    27   ar
    48    27    28   ar
    49    27    59    1
    50    28    49   ar
    51    28    57    1
    52    29    30   ar
    53    29    48   ar
    54    29    67    1
    55    30    31   ar
    56    30    65    1
    57    31    32   ar
    58    32    33   ar
    59    32    66    1
    60    33    48   ar
    61    33    72    1
    62    34    35   ar
    63    34    47   ar
    64    34    53    1
    65    35    36   ar
    66    35    54    1
    67    36    37   ar
    68    37    38   ar
    69    37    52    1
    70    38    47   ar
    71    38    51    1
    72    47    50    1
    73    48    60    1
    74    49    58    1
    75    60    61    1
    76    61    62    1
    77    61    63    1
    78    61    64    1
    79    67    68    1
    80    68    69    1
    81    68    70    1
    82    68    71    1
    83    72    73    1
    84    73    74    1
    85    73    75    1
    86    73    76    1
