# 150f_NO_TD
# Created by GaussView 6.0.16
#

#
#

@<TRIPOS>MOLECULE
Molecule Name
80 88
SMALL
NO_CHARGES


@<TRIPOS>ATOM
1 C1     2.5692    -0.9285    -0.1354 C
2 C2    -1.1977     2.2437    -0.0274 C
3 C3    -4.2478    -1.5873    -0.0600 C
4 C4     0.0696    -3.5316    -0.3082 C
5 C5     1.1671    -4.3273     0.0818 C
6 C6     2.2940    -3.5041     0.1617 C
7 C7     1.9075    -2.1800    -0.1676 C
8 N8     0.5605    -2.2487    -0.4674 N
9 C9     1.8727     0.2907    -0.1444 C
10 C10     2.3879     1.6205    -0.2834 C
11 C11     1.3377     2.5063    -0.2651 C
12 C12     0.1199     1.7684    -0.1011 C
13 N13     0.4872     0.4391    -0.0545 N
14 C14    -2.3768     1.4542     0.0194 C
15 C15    -3.7272     1.9949     0.1075 C
16 C16    -4.5795     0.9340     0.0994 C
17 C17    -3.7618    -0.2631     0.0105 C
18 N18    -2.4259     0.0936    -0.0292 N
19 C19    -3.3911    -2.7005    -0.2268 C
20 C20    -3.5616    -4.1166    -0.1850 C
21 C21    -2.3000    -4.7020    -0.2455 C
22 C22    -1.3409    -3.6566    -0.3338 C
23 N23    -2.0499    -2.4872    -0.3581 N
24 C24     4.0532    -0.9095    -0.0748 C
25 C25     4.7634    -1.3974     1.0245 C
26 C26     6.1494    -1.4300     1.0674 C
27 C27     6.2252    -0.3965    -1.0683 C
28 C28     4.8398    -0.4237    -1.1222 C
29 H29     1.1158    -5.3734     0.3516 H
30 H30     3.2759    -3.8003     0.5002 H
31 H31     0.1309    -1.5819    -1.0956 H
32 H32     3.4315     1.8630    -0.4178 H
33 H33     1.3965     3.5785    -0.3843 H
34 H34    -0.1452    -0.2471     0.3345 H
35 H35    -3.9881     3.0418     0.1750 H
36 H36    -5.6599     0.9626     0.1314 H
37 H37    -4.5070    -4.6335    -0.0987 H
38 H38    -2.0741    -5.7594    -0.2340 H
39 H39    -1.7177    -1.5198    -0.2611 H
40 F40     4.2490     0.0886    -2.2182 F
41 F41     6.8841     0.1666    -2.1055 F
42 F42     4.0966    -1.9096     2.0763 F
43 F43     6.7308    -1.9937     2.1498 F
44 C44     6.9491    -0.9165     0.0251 C
45 N45     8.3239    -0.9184     0.0687 N
46 C46     9.0635    -0.8127     1.3322 C
47 C47     9.1396    -1.0625    -1.1439 C
48 C48    10.4244    -0.1876     1.0535 C
49 H49     9.1950    -1.7899     1.8136 H
50 C50    10.4592    -1.7282    -0.7739 C
51 H51     9.3343    -0.0947    -1.6228 H
52 H52    10.9877    -0.1010     1.9884 H
53 H53    11.0780    -1.8400    -1.6701 H
54 O54    11.2195    -0.9665     0.1615 O
55 H55    10.2848     0.8261     0.6483 H
56 H56     8.5119    -0.1718     2.0256 H
57 H57     8.6127    -1.6915    -1.8668 H
58 H58    10.2617    -2.7338    -0.3725 H
59 C59    -1.3544     3.7251    -0.0247 C
60 C60    -0.8758     4.5112     1.0282 C
61 C61    -1.9734     4.4010    -1.0811 C
62 C62    -1.0037     5.8964     1.0370 C
63 C63    -2.1248     5.7835    -1.0891 C
64 C64    -1.6347     6.5348    -0.0257 C
65 C65    -5.7017    -1.8470     0.0675 C
66 C66    -6.4151    -2.5088    -0.9388 C
67 C67    -6.4256    -1.4733     1.2059 C
68 C68    -7.7745    -2.7801    -0.8289 C
69 C69    -7.7877    -1.7245     1.3325 C
70 C70    -8.4650    -2.3835     0.3117 C
71 F71    -1.7683     7.8648    -0.0261 F
72 F72    -2.7240     6.3960    -2.1185 F
73 F73    -2.4439     3.7156    -2.1331 F
74 F74    -0.2671     3.9342     2.0751 F
75 F75    -0.5333     6.6164     2.0638 F
76 F76    -5.8100    -0.8606     2.2272 F
77 F77    -8.4463    -1.3524     2.4375 F
78 F78    -9.7726    -2.6347     0.4263 F
79 F79    -8.4234    -3.4086    -1.8174 F
80 F80    -5.7916    -2.8964    -2.0616 F
@<TRIPOS>BOND
1 1 7 Ar
2 1 9 Ar
3 1 24 1
4 2 12 Ar
5 2 14 Ar
6 2 59 1
7 3 17 Ar
8 3 19 Ar
9 3 65 1
10 4 5 Ar
11 4 8 1
12 4 22 Ar
13 5 6 Ar
14 5 29 1
15 6 7 Ar
16 6 30 1
17 7 8 Ar
18 8 31 1
19 9 10 Ar
20 9 13 1
21 10 11 2
22 10 32 1
23 11 12 Ar
24 11 33 1
25 12 13 Ar
26 13 34 1
27 14 15 1
28 14 18 Ar
29 15 16 2
30 15 35 1
31 16 17 1
32 16 36 1
33 17 18 1
34 19 20 Ar
35 19 23 Ar
36 20 21 Ar
37 20 37 1
38 21 22 Ar
39 21 38 1
40 22 23 Ar
41 23 39 1
42 24 25 Ar
43 24 28 Ar
44 25 26 Ar
45 25 42 1
46 26 43 1
47 26 44 Ar
48 27 28 Ar
49 27 41 1
50 27 44 Ar
51 28 40 1
52 44 45 Ar
53 45 46 1
54 45 47 1
55 46 48 1
56 46 49 1
57 46 56 1
58 47 50 1
59 47 51 1
60 47 57 1
61 48 52 1
62 48 54 1
63 48 55 1
64 50 53 1
65 50 54 1
66 50 58 1
67 59 60 Ar
68 59 61 Ar
69 60 62 Ar
70 60 74 1
71 61 63 Ar
72 61 73 1
73 62 64 Ar
74 62 75 1
75 63 64 Ar
76 63 72 1
77 64 71 1
78 65 66 Ar
79 65 67 Ar
80 66 68 Ar
81 66 80 1
82 67 69 Ar
83 67 76 1
84 68 70 Ar
85 68 79 1
86 69 70 Ar
87 69 77 1
88 70 78 1
