@<TRIPOS>MOLECULE
F10_3_4_OH_TD
 69 76 0 0 0
SMALL
GASTEIGER

@<TRIPOS>ATOM
      1 C           3.3817   -1.1231   -0.0706 C.3     1  UNL1        0.1014
      2 C          -0.0003    2.4699   -0.1419 C.3     1  UNL1        0.0955
      3 C          -3.4570   -1.0140   -0.0996 C.3     1  UNL1        0.1011
      4 C           0.6145   -3.4399   -0.1882 C.ar    1  UNL1        0.0631
      5 C           1.6115   -4.3373    0.2480 C.ar    1  UNL1       -0.0347
      6 C           2.8224   -3.6424    0.3183 C.ar    1  UNL1       -0.0392
      7 C           2.5904   -2.2963   -0.0652 C.ar    1  UNL1        0.0347
      8 N           1.2490   -2.2255   -0.3851 N.ar    1  UNL1       -0.3557
      9 C           2.8262    0.1668   -0.1365 C.ar    1  UNL1        0.0344
     10 C           3.4912    1.4207   -0.3298 C.ar    1  UNL1       -0.0396
     11 C           2.5498    2.4215   -0.3570 C.ar    1  UNL1       -0.0396
     12 C           1.2538    1.8383   -0.1671 C.ar    1  UNL1        0.0341
     13 N           1.4696    0.4757   -0.0606 N.ar    1  UNL1       -0.3596
     14 C          -1.2578    1.8085   -0.0927 C.2     1  UNL1        0.0487
     15 C          -2.5419    2.4941   -0.0266 C.2     1  UNL1       -0.0400
     16 C          -3.5062    1.5326   -0.0202 C.2     1  UNL1       -0.0400
     17 C          -2.8252    0.2522   -0.0703 C.2     1  UNL1        0.0489
     18 N          -1.4589    0.4572   -0.1071 N.pl3   1  UNL1       -0.2209
     19 C          -2.7302   -2.2205   -0.2011 C.ar    1  UNL1        0.0346
     20 C          -3.0607   -3.6074   -0.1196 C.ar    1  UNL1       -0.0392
     21 C          -1.8733   -4.3323   -0.1328 C.ar    1  UNL1       -0.0347
     22 C          -0.7992   -3.4049   -0.2299 C.ar    1  UNL1        0.0631
     23 N          -1.3705   -2.1645   -0.3037 N.ar    1  UNL1       -0.3557
     24 C          -4.9333   -1.1046    0.0068 C.ar    1  UNL1        0.0479
     25 C          -5.6998   -1.7137   -0.9936 C.ar    1  UNL1        0.1686
     26 C          -7.0829   -1.8274   -0.9035 C.ar    1  UNL1        0.1967
     27 C          -7.7433   -1.3192    0.2102 C.ar    1  UNL1        0.1991
     28 C          -7.0134   -0.7088    1.2249 C.ar    1  UNL1        0.1967
     29 C          -5.6297   -0.6168    1.1191 C.ar    1  UNL1        0.1686
     30 F          -5.1053   -2.2047   -2.0916 F       1  UNL1       -0.2020
     31 F          -7.7823   -2.4101   -1.8861 F       1  UNL1       -0.1993
     32 F          -9.0730   -1.4178    0.3058 F       1  UNL1       -0.1993
     33 F          -7.6448   -0.2313    2.3051 F       1  UNL1       -0.1993
     34 F          -4.9660   -0.0459    2.1344 F       1  UNL1       -0.2020
     35 C           4.8593   -1.2633    0.0053 C.ar    1  UNL1        0.0481
     36 C           5.4895   -1.7743    1.1438 C.ar    1  UNL1        0.1687
     37 C           6.8689   -1.9371    1.2185 C.ar    1  UNL1        0.1967
     38 C           7.6639   -1.5673    0.1385 C.ar    1  UNL1        0.1991
     39 C           7.0713   -1.0475   -1.0078 C.ar    1  UNL1        0.1967
     40 C           5.6882   -0.9122   -1.0649 C.ar    1  UNL1        0.1687
     41 F           4.7590   -2.1341    2.2109 F       1  UNL1       -0.2020
     42 F           7.4356   -2.4324    2.3258 F       1  UNL1       -0.1993
     43 F           8.9910   -1.7103    0.2021 F       1  UNL1       -0.1993
     44 F           7.8318   -0.6947   -2.0518 F       1  UNL1       -0.1993
     45 F           5.1550   -0.4207   -2.1940 F       1  UNL1       -0.2020
     46 C           0.0099    3.9611   -0.2024 C.ar    1  UNL1       -0.0246
     47 C           0.6394    4.7076    0.8074 C.ar    1  UNL1       -0.0120
     48 C           0.6674    6.0962    0.7518 C.ar    1  UNL1        0.1585
     49 C           0.0575    6.7620   -0.3254 C.ar    1  UNL1        0.1582
     50 C          -0.5695    6.0342   -1.3303 C.ar    1  UNL1       -0.0162
     51 C          -0.5918    4.6392   -1.2704 C.ar    1  UNL1       -0.0536
     52 H           1.4405   -5.3606    0.5535 H       1  UNL1        0.0639
     53 H           3.7600   -4.0349    0.6836 H       1  UNL1        0.0636
     54 H           0.9040   -1.5377   -1.0429 H       1  UNL1        0.1657
     55 H           4.5563    1.5360   -0.4672 H       1  UNL1        0.0636
     56 H           2.7291    3.4737   -0.5193 H       1  UNL1        0.0636
     57 H           0.7555   -0.1240    0.3296 H       1  UNL1        0.1653
     58 H          -2.6823    3.5640    0.0182 H       1  UNL1        0.0634
     59 H          -4.5768    1.6815    0.0060 H       1  UNL1        0.0634
     60 H          -4.0606   -4.0107   -0.0413 H       1  UNL1        0.0636
     61 H          -1.7689   -5.4075   -0.0849 H       1  UNL1        0.0639
     62 H          -0.9339   -1.2367   -0.2367 H       1  UNL1        0.1657
     63 H          -1.0336    6.5552   -2.1649 H       1  UNL1        0.0655
     64 H          -1.0704    4.0747   -2.0634 H       1  UNL1        0.0622
     65 O           0.1413    8.1314   -0.2832 O.3     1  UNL1       -0.5033
     66 H          -0.3211    8.5127   -1.0465 H       1  UNL1        0.2923
     67 H           1.1028    4.2116    1.6536 H       1  UNL1        0.0658
     68 O           1.2769    6.8060    1.7420 O.3     1  UNL1       -0.5033
     69 H           1.1724    7.7505    1.5318 H       1  UNL1        0.2923
@<TRIPOS>BOND
     1     1     7    1
     2     1     9    1
     3     1    35    1
     4     2    12    1
     5     2    14    1
     6     2    46    1
     7     3    17    1
     8     3    19    1
     9     3    24    1
    10     4     5   ar
    11     4     8   ar
    12     4    22    1
    13     5     6   ar
    14     5    52    1
    15     6     7   ar
    16     6    53    1
    17     7     8   ar
    18     8    54    1
    19     9    10   ar
    20     9    13   ar
    21    10    11   ar
    22    10    55    1
    23    11    12   ar
    24    11    56    1
    25    12    13   ar
    26    13    57    1
    27    14    15    2
    28    14    18    1
    29    15    16    1
    30    15    58    1
    31    16    17    2
    32    16    59    1
    33    17    18    1
    34    19    20   ar
    35    19    23   ar
    36    20    21   ar
    37    20    60    1
    38    21    22   ar
    39    21    61    1
    40    22    23   ar
    41    23    62    1
    42    24    25   ar
    43    24    29   ar
    44    25    26   ar
    45    25    30    1
    46    26    27   ar
    47    26    31    1
    48    27    28   ar
    49    27    32    1
    50    28    29   ar
    51    28    33    1
    52    29    34    1
    53    35    36   ar
    54    35    40   ar
    55    36    37   ar
    56    36    41    1
    57    37    38   ar
    58    37    42    1
    59    38    39   ar
    60    38    43    1
    61    39    40   ar
    62    39    44    1
    63    40    45    1
    64    46    47   ar
    65    46    51   ar
    66    47    48   ar
    67    47    67    1
    68    48    49   ar
    69    48    68    1
    70    49    50   ar
    71    49    65    1
    72    50    51   ar
    73    50    63    1
    74    51    64    1
    75    65    66    1
    76    68    69    1
