@<TRIPOS>MOLECULE
F10_3_Br_4_OH_TD
 68 75 0 0 0
SMALL
GASTEIGER

@<TRIPOS>ATOM
      1 C           3.1250   -1.8678   -0.0932 C.3     1  UNL1        0.1014
      2 C           0.0476    1.9708   -0.4480 C.3     1  UNL1        0.0954
      3 C          -3.6824   -1.1951   -0.0827 C.3     1  UNL1        0.1011
      4 C           0.1744   -3.9467   -0.0111 C.ar    1  UNL1        0.0631
      5 C           1.0994   -4.8890    0.4860 C.ar    1  UNL1       -0.0347
      6 C           2.3626   -4.2914    0.5023 C.ar    1  UNL1       -0.0392
      7 C           2.2370   -2.9626    0.0211 C.ar    1  UNL1        0.0347
      8 N           0.9028   -2.8057   -0.2965 N.ar    1  UNL1       -0.3557
      9 C           2.6791   -0.5469   -0.2725 C.ar    1  UNL1        0.0344
     10 C           3.4383    0.6235   -0.5962 C.ar    1  UNL1       -0.0396
     11 C           2.5794    1.6908   -0.7091 C.ar    1  UNL1       -0.0396
     12 C           1.2458    1.2376   -0.4424 C.ar    1  UNL1        0.0341
     13 N           1.3529   -0.1213   -0.2063 N.ar    1  UNL1       -0.3596
     14 C          -1.2588    1.4261   -0.3128 C.2     1  UNL1        0.0487
     15 C          -2.4792    2.2211   -0.2654 C.2     1  UNL1       -0.0400
     16 C          -3.5192    1.3470   -0.1700 C.2     1  UNL1       -0.0400
     17 C          -2.9478    0.0131   -0.1464 C.2     1  UNL1        0.0489
     18 N          -1.5709    0.0996   -0.2254 N.pl3   1  UNL1       -0.2209
     19 C          -3.0587   -2.4621   -0.1085 C.ar    1  UNL1        0.0346
     20 C          -3.5006   -3.8067    0.0826 C.ar    1  UNL1       -0.0392
     21 C          -2.3771   -4.6263    0.1185 C.ar    1  UNL1       -0.0347
     22 C          -1.2320   -3.8006   -0.0556 C.ar    1  UNL1        0.0631
     23 N          -1.7005   -2.5272   -0.2269 N.ar    1  UNL1       -0.3557
     24 C          -5.1588   -1.1532    0.0481 C.ar    1  UNL1        0.0479
     25 C          -5.9934   -1.7670   -0.8934 C.ar    1  UNL1        0.1686
     26 C          -7.3792   -1.7528   -0.7789 C.ar    1  UNL1        0.1967
     27 C          -7.9738   -1.1080    0.3006 C.ar    1  UNL1        0.1991
     28 C          -7.1756   -0.4889    1.2570 C.ar    1  UNL1        0.1967
     29 C          -5.7914   -0.5254    1.1280 C.ar    1  UNL1        0.1686
     30 F          -5.4645   -2.3900   -1.9575 F       1  UNL1       -0.2020
     31 F          -8.1427   -2.3454   -1.7061 F       1  UNL1       -0.1993
     32 F          -9.3049   -1.0838    0.4186 F       1  UNL1       -0.1993
     33 F          -7.7432    0.1215    2.3052 F       1  UNL1       -0.1993
     34 F          -5.0636    0.0613    2.0891 F       1  UNL1       -0.2020
     35 C           4.5861   -2.1277   -0.0158 C.ar    1  UNL1        0.0481
     36 C           5.1871   -2.5806    1.1622 C.ar    1  UNL1        0.1687
     37 C           6.5490   -2.8508    1.2430 C.ar    1  UNL1        0.1967
     38 C           7.3556   -2.6547    0.1267 C.ar    1  UNL1        0.1991
     39 C           6.7920   -2.1985   -1.0606 C.ar    1  UNL1        0.1967
     40 C           5.4244   -1.9522   -1.1207 C.ar    1  UNL1        0.1687
     41 F           4.4433   -2.7748    2.2625 F       1  UNL1       -0.2020
     42 F           7.0896   -3.2845    2.3884 F       1  UNL1       -0.1993
     43 F           8.6666   -2.9032    0.1958 F       1  UNL1       -0.1993
     44 F           7.5635   -2.0161   -2.1394 F       1  UNL1       -0.1993
     45 F           4.9153   -1.5281   -2.2877 F       1  UNL1       -0.2020
     46 C           0.1778    3.4426   -0.6461 C.ar    1  UNL1       -0.0270
     47 C           0.9185    4.2227    0.2540 C.ar    1  UNL1       -0.0397
     48 C           1.0574    5.5922    0.0633 C.ar    1  UNL1        0.0595
     49 C           0.4562    6.2333   -1.0280 C.ar    1  UNL1        0.1308
     50 C          -0.2838    5.4573   -1.9274 C.ar    1  UNL1       -0.0188
     51 C          -0.4176    4.0855   -1.7413 C.ar    1  UNL1       -0.0537
     52 H           0.8488   -5.8707    0.8642 H       1  UNL1        0.0639
     53 H           3.2691   -4.7321    0.8911 H       1  UNL1        0.0636
     54 H           0.6071   -2.1370   -0.9965 H       1  UNL1        0.1657
     55 H           4.5055    0.6385   -0.7618 H       1  UNL1        0.0636
     56 H           2.8405    2.7025   -0.9819 H       1  UNL1        0.0636
     57 H           0.6047   -0.6161    0.2601 H       1  UNL1        0.1653
     58 H          -2.5306    3.2999   -0.2878 H       1  UNL1        0.0634
     59 H          -4.5727    1.5867   -0.1283 H       1  UNL1        0.0634
     60 H          -4.5286   -4.1193    0.2003 H       1  UNL1        0.0636
     61 H          -2.3604   -5.6993    0.2518 H       1  UNL1        0.0639
     62 H          -1.1874   -1.6370   -0.2335 H       1  UNL1        0.1657
     63 H          -0.7476    5.9383   -2.7860 H       1  UNL1        0.0654
     64 H          -0.9838    3.5021   -2.4597 H       1  UNL1        0.0622
     65 O           0.6168    7.5731   -1.1702 O.3     1  UNL1       -0.5057
     66 H           0.1386    7.8636   -1.9647 H       1  UNL1        0.2922
     67 H           1.3835    3.7575    1.1156 H       1  UNL1        0.0633
     68 BR          2.0764    6.6188    1.3069 Br      1  UNL1       -0.0465
@<TRIPOS>BOND
     1     1     7    1
     2     1     9    1
     3     1    35    1
     4     2    12    1
     5     2    14    1
     6     2    46    1
     7     3    17    1
     8     3    19    1
     9     3    24    1
    10     4     5   ar
    11     4     8   ar
    12     4    22    1
    13     5     6   ar
    14     5    52    1
    15     6     7   ar
    16     6    53    1
    17     7     8   ar
    18     8    54    1
    19     9    10   ar
    20     9    13   ar
    21    10    11   ar
    22    10    55    1
    23    11    12   ar
    24    11    56    1
    25    12    13   ar
    26    13    57    1
    27    14    15    2
    28    14    18    1
    29    15    16    1
    30    15    58    1
    31    16    17    2
    32    16    59    1
    33    17    18    1
    34    19    20   ar
    35    19    23   ar
    36    20    21   ar
    37    20    60    1
    38    21    22   ar
    39    21    61    1
    40    22    23   ar
    41    23    62    1
    42    24    25   ar
    43    24    29   ar
    44    25    26   ar
    45    25    30    1
    46    26    27   ar
    47    26    31    1
    48    27    28   ar
    49    27    32    1
    50    28    29   ar
    51    28    33    1
    52    29    34    1
    53    35    36   ar
    54    35    40   ar
    55    36    37   ar
    56    36    41    1
    57    37    38   ar
    58    37    42    1
    59    38    39   ar
    60    38    43    1
    61    39    40   ar
    62    39    44    1
    63    40    45    1
    64    46    47   ar
    65    46    51   ar
    66    47    48   ar
    67    47    67    1
    68    48    49   ar
    69    48    68    1
    70    49    50   ar
    71    49    65    1
    72    50    51   ar
    73    50    63    1
    74    51    64    1
    75    65    66    1
