@<TRIPOS>MOLECULE
F10_4_COOH_TD
 70 77 0 0 0
SMALL
GASTEIGER

@<TRIPOS>ATOM
      1 C           3.4224   -1.2689   -0.0769 C.3     1  UNL1        0.1014
      2 C          -0.0057    2.2768   -0.0424 C.3     1  UNL1        0.0954
      3 C          -3.4155   -1.2500   -0.1075 C.3     1  UNL1        0.1011
      4 C           0.6870   -3.6182   -0.2637 C.ar    1  UNL1        0.0631
      5 C           1.6925   -4.5107    0.1626 C.ar    1  UNL1       -0.0347
      6 C           2.8939   -3.8021    0.2520 C.ar    1  UNL1       -0.0392
      7 C           2.6470   -2.4524   -0.1083 C.ar    1  UNL1        0.0347
      8 N           1.3067   -2.3925   -0.4368 N.ar    1  UNL1       -0.3557
      9 C           2.8504    0.0145   -0.1030 C.ar    1  UNL1        0.0344
     10 C           3.5021    1.2838   -0.2330 C.ar    1  UNL1       -0.0396
     11 C           2.5493    2.2739   -0.2243 C.ar    1  UNL1       -0.0396
     12 C           1.2584    1.6665   -0.0764 C.ar    1  UNL1        0.0341
     13 N           1.4894    0.3041   -0.0292 N.ar    1  UNL1       -0.3596
     14 C          -1.2561    1.6002   -0.0287 C.2     1  UNL1        0.0487
     15 C          -2.5501    2.2669    0.0456 C.2     1  UNL1       -0.0400
     16 C          -3.5002    1.2920    0.0265 C.2     1  UNL1       -0.0400
     17 C          -2.8011    0.0229   -0.0483 C.2     1  UNL1        0.0489
     18 N          -1.4372    0.2477   -0.0752 N.pl3   1  UNL1       -0.2209
     19 C          -2.6729   -2.4437   -0.2434 C.ar    1  UNL1        0.0346
     20 C          -2.9849   -3.8360   -0.1878 C.ar    1  UNL1       -0.0392
     21 C          -1.7883   -4.5446   -0.2207 C.ar    1  UNL1       -0.0347
     22 C          -0.7271   -3.6012   -0.3052 C.ar    1  UNL1        0.0631
     23 N          -1.3147   -2.3674   -0.3532 N.ar    1  UNL1       -0.3557
     24 C          -4.8898   -1.3628    0.0022 C.ar    1  UNL1        0.0479
     25 C          -5.6516   -1.9629   -1.0072 C.ar    1  UNL1        0.1686
     26 C          -7.0325   -2.0977   -0.9137 C.ar    1  UNL1        0.1967
     27 C          -7.6951   -1.6212    0.2128 C.ar    1  UNL1        0.1991
     28 C          -6.9696   -1.0202    1.2363 C.ar    1  UNL1        0.1967
     29 C          -5.5879   -0.9063    1.1266 C.ar    1  UNL1        0.1686
     30 F          -5.0546   -2.4239   -2.1167 F       1  UNL1       -0.2020
     31 F          -7.7278   -2.6706   -1.9045 F       1  UNL1       -0.1993
     32 F          -9.0224   -1.7408    0.3120 F       1  UNL1       -0.1993
     33 F          -7.6028   -0.5726    2.3279 F       1  UNL1       -0.1993
     34 F          -4.9275   -0.3463    2.1501 F       1  UNL1       -0.2020
     35 C           4.9017   -1.3894    0.0063 C.ar    1  UNL1        0.0481
     36 C           5.5319   -1.9237    1.1340 C.ar    1  UNL1        0.1687
     37 C           6.9132   -2.0663    1.2142 C.ar    1  UNL1        0.1967
     38 C           7.7097   -1.6519    0.1516 C.ar    1  UNL1        0.1991
     39 C           7.1167   -1.1072   -0.9829 C.ar    1  UNL1        0.1967
     40 C           5.7321   -0.9915   -1.0461 C.ar    1  UNL1        0.1687
     41 F           4.7997   -2.3266    2.1845 F       1  UNL1       -0.2020
     42 F           7.4797   -2.5848    2.3108 F       1  UNL1       -0.1993
     43 F           9.0382   -1.7754    0.2210 F       1  UNL1       -0.1993
     44 F           7.8786   -0.7100   -2.0095 F       1  UNL1       -0.1993
     45 F           5.1993   -0.4712   -2.1624 F       1  UNL1       -0.2020
     46 C          -0.0151    3.7679   -0.0403 C.ar    1  UNL1       -0.0283
     47 C           0.5910    4.4841    1.0043 C.ar    1  UNL1       -0.0565
     48 C           0.5903    5.8751    1.0112 C.ar    1  UNL1       -0.0475
     49 C          -0.0212    6.5803   -0.0337 C.ar    1  UNL1        0.0589
     50 C          -0.6253    5.8745   -1.0825 C.ar    1  UNL1       -0.0475
     51 C          -0.6204    4.4855   -1.0858 C.ar    1  UNL1       -0.0565
     52 H           1.5322   -5.5407    0.4507 H       1  UNL1        0.0639
     53 H           3.8336   -4.1890    0.6178 H       1  UNL1        0.0636
     54 H           0.9572   -1.6996   -1.0868 H       1  UNL1        0.1657
     55 H           4.5673    1.4181   -0.3518 H       1  UNL1        0.0636
     56 H           2.7192    3.3342   -0.3384 H       1  UNL1        0.0636
     57 H           0.7774   -0.3205    0.3238 H       1  UNL1        0.1653
     58 H          -2.7093    3.3333    0.1127 H       1  UNL1        0.0634
     59 H          -4.5730    1.4251    0.0496 H       1  UNL1        0.0634
     60 H          -3.9790   -4.2537   -0.1119 H       1  UNL1        0.0636
     61 H          -1.6694   -5.6191   -0.1943 H       1  UNL1        0.0639
     62 H          -0.8887   -1.4372   -0.2624 H       1  UNL1        0.1657
     63 H           1.0541    6.4150    1.8288 H       1  UNL1        0.0626
     64 H          -1.0881    6.4303   -1.8908 H       1  UNL1        0.0626
     65 H          -1.0795    3.9427   -1.9058 H       1  UNL1        0.0621
     66 H           1.0525    3.9396    1.8221 H       1  UNL1        0.0621
     67 C          -0.0583    8.0622   -0.0749 C.2     1  UNL1        0.3368
     68 O          -0.5872    8.7212   -0.9502 O.2     1  UNL1       -0.2451
     69 O           0.5669    8.6392    0.9793 O.3     1  UNL1       -0.4771
     70 H           0.4787    9.6029    0.8504 H       1  UNL1        0.2954
@<TRIPOS>BOND
     1     1     7    1
     2     1     9    1
     3     1    35    1
     4     2    12    1
     5     2    14    1
     6     2    46    1
     7     3    17    1
     8     3    19    1
     9     3    24    1
    10     4     5   ar
    11     4     8   ar
    12     4    22    1
    13     5     6   ar
    14     5    52    1
    15     6     7   ar
    16     6    53    1
    17     7     8   ar
    18     8    54    1
    19     9    10   ar
    20     9    13   ar
    21    10    11   ar
    22    10    55    1
    23    11    12   ar
    24    11    56    1
    25    12    13   ar
    26    13    57    1
    27    14    15    2
    28    14    18    1
    29    15    16    1
    30    15    58    1
    31    16    17    2
    32    16    59    1
    33    17    18    1
    34    19    20   ar
    35    19    23   ar
    36    20    21   ar
    37    20    60    1
    38    21    22   ar
    39    21    61    1
    40    22    23   ar
    41    23    62    1
    42    24    25   ar
    43    24    29   ar
    44    25    26   ar
    45    25    30    1
    46    26    27   ar
    47    26    31    1
    48    27    28   ar
    49    27    32    1
    50    28    29   ar
    51    28    33    1
    52    29    34    1
    53    35    36   ar
    54    35    40   ar
    55    36    37   ar
    56    36    41    1
    57    37    38   ar
    58    37    42    1
    59    38    39   ar
    60    38    43    1
    61    39    40   ar
    62    39    44    1
    63    40    45    1
    64    46    47   ar
    65    46    51   ar
    66    47    48   ar
    67    47    66    1
    68    48    49   ar
    69    48    63    1
    70    49    50   ar
    71    49    67    1
    72    50    51   ar
    73    50    64    1
    74    51    65    1
    75    67    68    2
    76    67    69    1
    77    69    70    1
