@<TRIPOS>MOLECULE
F10_4_Formyl_TD
 69 76 0 0 0
SMALL
GASTEIGER

@<TRIPOS>ATOM
      1 C           3.4383   -1.0570   -0.0746 C.3     1  UNL1        0.1014
      2 C          -0.0120    2.4663    0.0231 C.3     1  UNL1        0.0954
      3 C          -3.3985   -1.0813   -0.1130 C.3     1  UNL1        0.1011
      4 C           0.7185   -3.4209   -0.2997 C.ar    1  UNL1        0.0631
      5 C           1.7287   -4.3129    0.1159 C.ar    1  UNL1       -0.0347
      6 C           2.9254   -3.5981    0.2180 C.ar    1  UNL1       -0.0392
      7 C           2.6705   -2.2448   -0.1229 C.ar    1  UNL1        0.0347
      8 N           1.3304   -2.1885   -0.4529 N.ar    1  UNL1       -0.3557
      9 C           2.8580    0.2228   -0.0802 C.ar    1  UNL1        0.0344
     10 C           3.5023    1.4981   -0.1860 C.ar    1  UNL1       -0.0396
     11 C           2.5437    2.4822   -0.1590 C.ar    1  UNL1       -0.0396
     12 C           1.2563    1.8645   -0.0227 C.ar    1  UNL1        0.0341
     13 N           1.4953    0.5032   -0.0016 N.ar    1  UNL1       -0.3596
     14 C          -1.2583    1.7811    0.0227 C.2     1  UNL1        0.0487
     15 C          -2.5567    2.4371    0.1136 C.2     1  UNL1       -0.0400
     16 C          -3.5002    1.4564    0.0741 C.2     1  UNL1       -0.0400
     17 C          -2.7925    0.1941   -0.0289 C.2     1  UNL1        0.0489
     18 N          -1.4300    0.4289   -0.0530 N.pl3   1  UNL1       -0.2209
     19 C          -2.6486   -2.2677   -0.2704 C.ar    1  UNL1        0.0346
     20 C          -2.9523   -3.6626   -0.2388 C.ar    1  UNL1       -0.0392
     21 C          -1.7513   -4.3633   -0.2796 C.ar    1  UNL1       -0.0347
     22 C          -0.6956   -3.4122   -0.3453 C.ar    1  UNL1        0.0631
     23 N          -1.2906   -2.1814   -0.3749 N.ar    1  UNL1       -0.3557
     24 C          -4.8723   -1.2056   -0.0075 C.ar    1  UNL1        0.0479
     25 C          -5.6284   -1.7921   -1.0291 C.ar    1  UNL1        0.1686
     26 C          -7.0085   -1.9384   -0.9401 C.ar    1  UNL1        0.1967
     27 C          -7.6759   -1.4880    0.1943 C.ar    1  UNL1        0.1991
     28 C          -6.9560   -0.9008    1.2297 C.ar    1  UNL1        0.1967
     29 C          -5.5750   -0.7752    1.1241 C.ar    1  UNL1        0.1686
     30 F          -5.0268   -2.2281   -2.1461 F       1  UNL1       -0.2020
     31 F          -7.6983   -2.4973   -1.9425 F       1  UNL1       -0.1993
     32 F          -9.0024   -1.6191    0.2894 F       1  UNL1       -0.1993
     33 F          -7.5936   -0.4779    2.3285 F       1  UNL1       -0.1993
     34 F          -4.9199   -0.2299    2.1590 F       1  UNL1       -0.2020
     35 C           4.9187   -1.1683    0.0046 C.ar    1  UNL1        0.0481
     36 C           5.5549   -1.7167    1.1221 C.ar    1  UNL1        0.1687
     37 C           6.9374   -1.8499    1.1978 C.ar    1  UNL1        0.1967
     38 C           7.7288   -1.4117    0.1410 C.ar    1  UNL1        0.1991
     39 C           7.1298   -0.8523   -0.9832 C.ar    1  UNL1        0.1967
     40 C           5.7442   -0.7459   -1.0421 C.ar    1  UNL1        0.1687
     41 F           4.8276   -2.1431    2.1668 F       1  UNL1       -0.2020
     42 F           7.5095   -2.3822    2.2846 F       1  UNL1       -0.1993
     43 F           9.0583   -1.5263    0.2062 F       1  UNL1       -0.1993
     44 F           7.8867   -0.4321   -2.0042 F       1  UNL1       -0.1993
     45 F           5.2056   -0.2095   -2.1480 F       1  UNL1       -0.2020
     46 C          -0.0304    3.9563    0.0577 C.ar    1  UNL1       -0.0283
     47 C           0.5852    4.6517    1.1112 C.ar    1  UNL1       -0.0566
     48 C           0.5752    6.0425    1.1414 C.ar    1  UNL1       -0.0512
     49 C          -0.0498    6.7665    0.1187 C.ar    1  UNL1        0.0142
     50 C          -0.6650    6.0794   -0.9390 C.ar    1  UNL1       -0.0512
     51 C          -0.6538    4.6925   -0.9681 C.ar    1  UNL1       -0.0566
     52 H           1.5745   -5.3479    0.3889 H       1  UNL1        0.0639
     53 H           3.8669   -3.9843    0.5802 H       1  UNL1        0.0636
     54 H           0.9785   -1.4900   -1.0955 H       1  UNL1        0.1657
     55 H           4.5667    1.6408   -0.3011 H       1  UNL1        0.0636
     56 H           2.7077    3.5453   -0.2536 H       1  UNL1        0.0636
     57 H           0.7862   -0.1322    0.3375 H       1  UNL1        0.1653
     58 H          -2.7238    3.5005    0.2047 H       1  UNL1        0.0634
     59 H          -4.5738    1.5815    0.1022 H       1  UNL1        0.0634
     60 H          -3.9441   -4.0875   -0.1724 H       1  UNL1        0.0636
     61 H          -1.6260   -5.4373   -0.2705 H       1  UNL1        0.0639
     62 H          -0.8703   -1.2506   -0.2664 H       1  UNL1        0.1657
     63 H           1.0471    6.5739    1.9647 H       1  UNL1        0.0624
     64 H          -1.1383    6.6526   -1.7300 H       1  UNL1        0.0624
     65 H          -1.1189    4.1604   -1.7917 H       1  UNL1        0.0621
     66 H           1.0584    4.0915    1.9114 H       1  UNL1        0.0621
     67 C          -0.0533    8.2408    0.1604 C.2     1  UNL1        0.1502
     68 O          -0.5614    8.9598   -0.6823 O.2     1  UNL1       -0.2957
     69 H           0.4575    8.6801    1.0445 H       1  UNL1        0.1081
@<TRIPOS>BOND
     1     1     7    1
     2     1     9    1
     3     1    35    1
     4     2    12    1
     5     2    14    1
     6     2    46    1
     7     3    17    1
     8     3    19    1
     9     3    24    1
    10     4     5   ar
    11     4     8   ar
    12     4    22    1
    13     5     6   ar
    14     5    52    1
    15     6     7   ar
    16     6    53    1
    17     7     8   ar
    18     8    54    1
    19     9    10   ar
    20     9    13   ar
    21    10    11   ar
    22    10    55    1
    23    11    12   ar
    24    11    56    1
    25    12    13   ar
    26    13    57    1
    27    14    15    2
    28    14    18    1
    29    15    16    1
    30    15    58    1
    31    16    17    2
    32    16    59    1
    33    17    18    1
    34    19    20   ar
    35    19    23   ar
    36    20    21   ar
    37    20    60    1
    38    21    22   ar
    39    21    61    1
    40    22    23   ar
    41    23    62    1
    42    24    25   ar
    43    24    29   ar
    44    25    26   ar
    45    25    30    1
    46    26    27   ar
    47    26    31    1
    48    27    28   ar
    49    27    32    1
    50    28    29   ar
    51    28    33    1
    52    29    34    1
    53    35    36   ar
    54    35    40   ar
    55    36    37   ar
    56    36    41    1
    57    37    38   ar
    58    37    42    1
    59    38    39   ar
    60    38    43    1
    61    39    40   ar
    62    39    44    1
    63    40    45    1
    64    46    47   ar
    65    46    51   ar
    66    47    48   ar
    67    47    66    1
    68    48    49   ar
    69    48    63    1
    70    49    50   ar
    71    49    67    1
    72    50    51   ar
    73    50    64    1
    74    51    65    1
    75    67    68    2
    76    67    69    1
