@<TRIPOS>MOLECULE
F10_4_Furamide_TD
 81 89 0 0 0
SMALL
GASTEIGER

@<TRIPOS>ATOM
      1 C           0.4672    4.0356    0.1247 C.3     1  UNL1        0.1014
      2 C           0.7257   -0.7805   -0.9102 C.3     1  UNL1        0.0954
      3 C          -4.0320   -1.1092    0.2403 C.3     1  UNL1        0.1011
      4 C          -2.9520    3.4223    1.1011 C.ar    1  UNL1        0.0631
      5 C          -3.0319    4.8235    0.9529 C.ar    1  UNL1       -0.0347
      6 C          -1.7633    5.2979    0.6103 C.ar    1  UNL1       -0.0392
      7 C          -0.8772    4.1920    0.5324 C.ar    1  UNL1        0.0347
      8 N          -1.6321    3.0840    0.8613 N.ar    1  UNL1       -0.3557
      9 C           1.0160    2.7860   -0.2116 C.ar    1  UNL1        0.0344
     10 C           2.3843    2.4412   -0.4519 C.ar    1  UNL1       -0.0396
     11 C           2.4595    1.0971   -0.7306 C.ar    1  UNL1       -0.0396
     12 C           1.1367    0.5459   -0.6941 C.ar    1  UNL1        0.0341
     13 N           0.3035    1.5952   -0.3509 N.ar    1  UNL1       -0.3596
     14 C          -0.5922   -1.2814   -0.7245 C.2     1  UNL1        0.0487
     15 C          -1.0038   -2.6465   -1.0274 C.2     1  UNL1       -0.0400
     16 C          -2.3236   -2.7437   -0.7066 C.2     1  UNL1       -0.0400
     17 C          -2.7350   -1.4420   -0.2164 C.2     1  UNL1        0.0489
     18 N          -1.6588   -0.5748   -0.2476 N.pl3   1  UNL1       -0.2209
     19 C          -4.3493    0.1685    0.7512 C.ar    1  UNL1        0.0346
     20 C          -5.5567    0.8277    1.1356 C.ar    1  UNL1       -0.0392
     21 C          -5.2556    2.1621    1.3843 C.ar    1  UNL1       -0.0347
     22 C          -3.8618    2.3412    1.1626 C.ar    1  UNL1        0.0631
     23 N          -3.3651    1.1112    0.8297 N.ar    1  UNL1       -0.3557
     24 C          -5.1273   -2.1042    0.1446 C.ar    1  UNL1        0.0479
     25 C          -5.8467   -2.5087    1.2752 C.ar    1  UNL1        0.1686
     26 C          -6.9004   -3.4130    1.2007 C.ar    1  UNL1        0.1967
     27 C          -7.2632   -3.9461   -0.0317 C.ar    1  UNL1        0.1991
     28 C          -6.5698   -3.5674   -1.1767 C.ar    1  UNL1        0.1967
     29 C          -5.5273   -2.6521   -1.0800 C.ar    1  UNL1        0.1686
     30 F          -5.5231   -2.0286    2.4857 F       1  UNL1       -0.2020
     31 F          -7.5585   -3.7812    2.3073 F       1  UNL1       -0.1993
     32 F          -8.2718   -4.8186   -0.1148 F       1  UNL1       -0.1993
     33 F          -6.9228   -4.0694   -2.3667 F       1  UNL1       -0.1993
     34 F          -4.9107   -2.2925   -2.2149 F       1  UNL1       -0.2020
     35 C           1.3279    5.2440    0.0331 C.ar    1  UNL1        0.0481
     36 C           1.0906    6.2398   -0.9185 C.ar    1  UNL1        0.1687
     37 C           1.8768    7.3840   -1.0059 C.ar    1  UNL1        0.1967
     38 C           2.9479    7.5497   -0.1338 C.ar    1  UNL1        0.1991
     39 C           3.2155    6.5761    0.8233 C.ar    1  UNL1        0.1967
     40 C           2.4042    5.4490    0.9012 C.ar    1  UNL1        0.1687
     41 F           0.0705    6.1132   -1.7814 F       1  UNL1       -0.2020
     42 F           1.6164    8.3178   -1.9288 F       1  UNL1       -0.1993
     43 F           3.7165    8.6393   -0.2157 F       1  UNL1       -0.1993
     44 F           4.2424    6.7332    1.6674 F       1  UNL1       -0.1993
     45 F           2.6895    4.5356    1.8424 F       1  UNL1       -0.2020
     46 C           1.7832   -1.7299   -1.3581 C.ar    1  UNL1       -0.0283
     47 C           2.5047   -1.4977   -2.5407 C.ar    1  UNL1       -0.0567
     48 C           3.5029   -2.3728   -2.9527 C.ar    1  UNL1       -0.0528
     49 C           3.0912   -3.7548   -1.0191 C.ar    1  UNL1       -0.0528
     50 C           2.0899   -2.8785   -0.6116 C.ar    1  UNL1       -0.0567
     51 H          -3.9411    5.4063    1.0112 H       1  UNL1        0.0639
     52 H          -1.5116    6.3190    0.3631 H       1  UNL1        0.0636
     53 H          -1.2022    2.2564    1.2547 H       1  UNL1        0.1657
     54 H           3.2130    3.1303   -0.3833 H       1  UNL1        0.0636
     55 H           3.3575    0.5282   -0.9197 H       1  UNL1        0.0636
     56 H          -0.6912    1.5281   -0.5187 H       1  UNL1        0.1653
     57 H          -0.3746   -3.4206   -1.4419 H       1  UNL1        0.0634
     58 H          -2.9531   -3.6191   -0.7869 H       1  UNL1        0.0634
     59 H          -6.5321    0.3660    1.1976 H       1  UNL1        0.0636
     60 H          -5.9443    2.9368    1.6923 H       1  UNL1        0.0639
     61 H          -2.4428    0.8568    0.4537 H       1  UNL1        0.1657
     62 H           4.0412   -2.1795   -3.8768 H       1  UNL1        0.0624
     63 H           3.2715   -4.6554   -0.4405 H       1  UNL1        0.0624
     64 H           1.5354   -3.0833    0.2987 H       1  UNL1        0.0621
     65 H           2.2657   -0.6286   -3.1455 H       1  UNL1        0.0621
     66 C           3.8299   -3.5072   -2.1913 C.ar    1  UNL1       -0.0054
     67 C           4.8913   -4.4041   -2.6880 C.2     1  UNL1        0.0528
     68 H           4.9643   -4.5096   -3.7696 H       1  UNL1        0.0851
     69 N           5.7828   -5.0722   -2.0424 N.2     1  UNL1       -0.1874
     70 N           5.8414   -4.9480   -0.6887 N.am    1  UNL1       -0.2004
     71 H           5.3519   -4.1786   -0.2391 H       1  UNL1        0.1777
     72 C           6.8290   -5.6162    0.0227 C.2     1  UNL1        0.2985
     73 O           7.6116   -6.4102   -0.4692 O.2     1  UNL1       -0.2651
     74 C           6.8032   -5.2871    1.4621 C.ar    1  UNL1        0.1907
     75 C           5.9557   -4.5772    2.2767 C.ar    1  UNL1       -0.0112
     76 O           7.8276   -5.8005    2.2058 O.2     1  UNL1       -0.4583
     77 C           6.4955   -4.6583    3.5953 C.ar    1  UNL1       -0.0231
     78 H           5.0486   -4.0657    1.9840 H       1  UNL1        0.0657
     79 C           7.6288   -5.4118    3.4883 C.ar    1  UNL1        0.0928
     80 H           6.0925   -4.2202    4.4974 H       1  UNL1        0.0649
     81 H           8.3691   -5.7452    4.2002 H       1  UNL1        0.1029
@<TRIPOS>BOND
     1     1     7    1
     2     1     9    1
     3     1    35    1
     4     2    12    1
     5     2    14    1
     6     2    46    1
     7     3    17    1
     8     3    19    1
     9     3    24    1
    10     4     5   ar
    11     4     8   ar
    12     4    22    1
    13     5     6   ar
    14     5    51    1
    15     6     7   ar
    16     6    52    1
    17     7     8   ar
    18     8    53    1
    19     9    10   ar
    20     9    13   ar
    21    10    11   ar
    22    10    54    1
    23    11    12   ar
    24    11    55    1
    25    12    13   ar
    26    13    56    1
    27    14    15    2
    28    14    18    1
    29    15    16    1
    30    15    57    1
    31    16    17    2
    32    16    58    1
    33    17    18    1
    34    19    20   ar
    35    19    23   ar
    36    20    21   ar
    37    20    59    1
    38    21    22   ar
    39    21    60    1
    40    22    23   ar
    41    23    61    1
    42    24    25   ar
    43    24    29   ar
    44    25    26   ar
    45    25    30    1
    46    26    27   ar
    47    26    31    1
    48    27    28   ar
    49    27    32    1
    50    28    29   ar
    51    28    33    1
    52    29    34    1
    53    35    36   ar
    54    35    40   ar
    55    36    37   ar
    56    36    41    1
    57    37    38   ar
    58    37    42    1
    59    38    39   ar
    60    38    43    1
    61    39    40   ar
    62    39    44    1
    63    40    45    1
    64    46    47   ar
    65    46    50   ar
    66    47    48   ar
    67    47    65    1
    68    48    62    1
    69    48    66   ar
    70    49    50   ar
    71    49    63    1
    72    49    66   ar
    73    50    64    1
    74    66    67    1
    75    67    68    1
    76    67    69    2
    77    69    70    1
    78    70    71    1
    79    70    72   am
    80    72    73    2
    81    72    74    1
    82    74    75   ar
    83    74    76   ar
    84    75    77   ar
    85    75    78    1
    86    76    79   ar
    87    77    79   ar
    88    77    80    1
    89    79    81    1
