@<TRIPOS>MOLECULE
F10_4_Pyridinamide_TD
 83 91 0 0 0
SMALL
GASTEIGER

@<TRIPOS>ATOM
      1 C           0.3956    4.0184    0.0758 C.3     1  UNL1        0.1014
      2 C           0.5764   -0.7861   -1.0311 C.3     1  UNL1        0.0954
      3 C          -4.1434   -1.0866    0.2705 C.3     1  UNL1        0.1011
      4 C          -2.9953    3.4233    1.1551 C.ar    1  UNL1        0.0631
      5 C          -3.0676    4.8269    1.0243 C.ar    1  UNL1       -0.0347
      6 C          -1.8061    5.2945    0.6479 C.ar    1  UNL1       -0.0392
      7 C          -0.9325    4.1823    0.5315 C.ar    1  UNL1        0.0347
      8 N          -1.6863    3.0773    0.8716 N.ar    1  UNL1       -0.3557
      9 C           0.9186    2.7698   -0.3027 C.ar    1  UNL1        0.0344
     10 C           2.2757    2.4167   -0.5910 C.ar    1  UNL1       -0.0396
     11 C           2.3300    1.0762   -0.8901 C.ar    1  UNL1       -0.0396
     12 C           1.0040    0.5356   -0.8185 C.ar    1  UNL1        0.0341
     13 N           0.1912    1.5878   -0.4385 N.ar    1  UNL1       -0.3596
     14 C          -0.7374   -1.2800   -0.8029 C.2     1  UNL1        0.0487
     15 C          -1.1690   -2.6401   -1.1007 C.2     1  UNL1       -0.0400
     16 C          -2.4787   -2.7290   -0.7386 C.2     1  UNL1       -0.0400
     17 C          -2.8637   -1.4274   -0.2270 C.2     1  UNL1        0.0489
     18 N          -1.7820   -0.5689   -0.2860 N.pl3   1  UNL1       -0.2209
     19 C          -4.4328    0.1877    0.8056 C.ar    1  UNL1        0.0346
     20 C          -5.6237    0.8539    1.2271 C.ar    1  UNL1       -0.0392
     21 C          -5.3030    2.1821    1.4852 C.ar    1  UNL1       -0.0347
     22 C          -3.9133    2.3500    1.2322 C.ar    1  UNL1        0.0631
     23 N          -3.4372    1.1192    0.8732 N.ar    1  UNL1       -0.3557
     24 C          -5.2502   -2.0702    0.1957 C.ar    1  UNL1        0.0479
     25 C          -5.9429   -2.4789    1.3414 C.ar    1  UNL1        0.1686
     26 C          -7.0037   -3.3764    1.2872 C.ar    1  UNL1        0.1967
     27 C          -7.4017   -3.8977    0.0606 C.ar    1  UNL1        0.1991
     28 C          -6.7360   -3.5141   -1.0990 C.ar    1  UNL1        0.1967
     29 C          -5.6858   -2.6058   -1.0224 C.ar    1  UNL1        0.1686
     30 F          -5.5850   -2.0108    2.5468 F       1  UNL1       -0.2020
     31 F          -7.6353   -3.7492    2.4075 F       1  UNL1       -0.1993
     32 F          -8.4167   -4.7643   -0.0028 F       1  UNL1       -0.1993
     33 F          -7.1222   -4.0051   -2.2833 F       1  UNL1       -0.1993
     34 F          -5.0970   -2.2412   -2.1703 F       1  UNL1       -0.2020
     35 C           1.2667    5.2191   -0.0208 C.ar    1  UNL1        0.0481
     36 C           1.0141    6.2330   -0.9488 C.ar    1  UNL1        0.1687
     37 C           1.8077    7.3720   -1.0363 C.ar    1  UNL1        0.1967
     38 C           2.9023    7.5131   -0.1894 C.ar    1  UNL1        0.1991
     39 C           3.1861    6.5205    0.7432 C.ar    1  UNL1        0.1967
     40 C           2.3674    5.3989    0.8221 C.ar    1  UNL1        0.1687
     41 F          -0.0292    6.1295   -1.7868 F       1  UNL1       -0.2020
     42 F           1.5325    8.3240   -1.9361 F       1  UNL1       -0.1993
     43 F           3.6779    8.5977   -0.2717 F       1  UNL1       -0.1993
     44 F           4.2351    6.6548    1.5637 F       1  UNL1       -0.1993
     45 F           2.6685    4.4667    1.7394 F       1  UNL1       -0.2020
     46 C           1.6144   -1.7401   -1.5139 C.ar    1  UNL1       -0.0283
     47 C           2.3010   -1.5112   -2.7176 C.ar    1  UNL1       -0.0567
     48 C           3.2896   -2.3858   -3.1555 C.ar    1  UNL1       -0.0528
     49 C           2.9334   -3.7616   -1.2056 C.ar    1  UNL1       -0.0528
     50 C           1.9410   -2.8876   -0.7735 C.ar    1  UNL1       -0.0567
     51 H          -3.9696    5.4163    1.1171 H       1  UNL1        0.0639
     52 H          -1.5529    6.3160    0.4036 H       1  UNL1        0.0636
     53 H          -1.2508    2.2401    1.2372 H       1  UNL1        0.1657
     54 H           3.1125    3.0972   -0.5382 H       1  UNL1        0.0636
     55 H           3.2165    0.5020   -1.1140 H       1  UNL1        0.0636
     56 H          -0.8095    1.5294   -0.5696 H       1  UNL1        0.1653
     57 H          -0.5594   -3.4164   -1.5396 H       1  UNL1        0.0634
     58 H          -3.1181   -3.5984   -0.8039 H       1  UNL1        0.0634
     59 H          -6.6021    0.4008    1.3047 H       1  UNL1        0.0636
     60 H          -5.9766    2.9598    1.8179 H       1  UNL1        0.0639
     61 H          -2.5259    0.8620    0.4750 H       1  UNL1        0.1657
     62 H           3.8030   -2.1938   -4.0939 H       1  UNL1        0.0624
     63 H           3.1393   -4.6587   -0.6293 H       1  UNL1        0.0624
     64 H           1.4124   -3.0904    0.1525 H       1  UNL1        0.0621
     65 H           2.0448   -0.6436   -3.3174 H       1  UNL1        0.0621
     66 C           3.6398   -3.5139   -2.3969 C.ar    1  UNL1       -0.0054
     67 C           4.6992   -4.4128   -2.8981 C.2     1  UNL1        0.0528
     68 H           4.7214   -4.5927   -3.9721 H       1  UNL1        0.0851
     69 N           5.6393   -5.0078   -2.2506 N.2     1  UNL1       -0.1875
     70 N           5.7466   -4.7655   -0.9110 N.am    1  UNL1       -0.2030
     71 H           5.2484   -3.9752   -0.5126 H       1  UNL1        0.1776
     72 C           6.7511   -5.3603   -0.1769 C.2     1  UNL1        0.2634
     73 O           7.5302   -6.1823   -0.6302 O.2     1  UNL1       -0.2684
     74 C           6.8038   -4.9174    1.2611 C.ar    1  UNL1        0.0412
     75 C           7.9932   -5.1367    1.9613 C.ar    1  UNL1       -0.0314
     76 C           5.7385   -4.3258    1.9499 C.ar    1  UNL1       -0.0314
     77 C           8.0727   -4.7396    3.2934 C.ar    1  UNL1        0.0283
     78 H           8.8311   -5.6094    1.4618 H       1  UNL1        0.0640
     79 C           5.9205   -3.9715    3.2865 C.ar    1  UNL1        0.0283
     80 H           4.7707   -4.1565    1.4879 H       1  UNL1        0.0640
     81 N           7.0618   -4.1626    3.9581 N.ar    1  UNL1       -0.2632
     82 H           8.9915   -4.8925    3.8556 H       1  UNL1        0.0830
     83 H           5.1048   -3.5148    3.8434 H       1  UNL1        0.0830
@<TRIPOS>BOND
     1     1     7    1
     2     1     9    1
     3     1    35    1
     4     2    12    1
     5     2    14    1
     6     2    46    1
     7     3    17    1
     8     3    19    1
     9     3    24    1
    10     4     5   ar
    11     4     8   ar
    12     4    22    1
    13     5     6   ar
    14     5    51    1
    15     6     7   ar
    16     6    52    1
    17     7     8   ar
    18     8    53    1
    19     9    10   ar
    20     9    13   ar
    21    10    11   ar
    22    10    54    1
    23    11    12   ar
    24    11    55    1
    25    12    13   ar
    26    13    56    1
    27    14    15    2
    28    14    18    1
    29    15    16    1
    30    15    57    1
    31    16    17    2
    32    16    58    1
    33    17    18    1
    34    19    20   ar
    35    19    23   ar
    36    20    21   ar
    37    20    59    1
    38    21    22   ar
    39    21    60    1
    40    22    23   ar
    41    23    61    1
    42    24    25   ar
    43    24    29   ar
    44    25    26   ar
    45    25    30    1
    46    26    27   ar
    47    26    31    1
    48    27    28   ar
    49    27    32    1
    50    28    29   ar
    51    28    33    1
    52    29    34    1
    53    35    36   ar
    54    35    40   ar
    55    36    37   ar
    56    36    41    1
    57    37    38   ar
    58    37    42    1
    59    38    39   ar
    60    38    43    1
    61    39    40   ar
    62    39    44    1
    63    40    45    1
    64    46    47   ar
    65    46    50   ar
    66    47    48   ar
    67    47    65    1
    68    48    62    1
    69    48    66   ar
    70    49    50   ar
    71    49    63    1
    72    49    66   ar
    73    50    64    1
    74    66    67    1
    75    67    68    1
    76    67    69    2
    77    69    70    1
    78    70    71    1
    79    70    72   am
    80    72    73    2
    81    72    74    1
    82    74    75   ar
    83    74    76   ar
    84    75    77   ar
    85    75    78    1
    86    76    79   ar
    87    76    80    1
    88    77    81   ar
    89    77    82    1
    90    79    81   ar
    91    79    83    1
