@<TRIPOS>MOLECULE
F10_4_Thiophenamide_TD
 81 89 0 0 0
SMALL
GASTEIGER

@<TRIPOS>ATOM
      1 C          -0.2688    4.0889    0.0452 C.3     1  UNL1        0.1014
      2 C           0.5940   -0.6368   -1.0681 C.3     1  UNL1        0.0954
      3 C          -4.0353   -1.6191    0.2285 C.3     1  UNL1        0.1011
      4 C          -3.5655    3.0220    1.0606 C.ar    1  UNL1        0.0631
      5 C          -3.8279    4.4028    0.9393 C.ar    1  UNL1       -0.0347
      6 C          -2.6367    5.0428    0.5859 C.ar    1  UNL1       -0.0392
      7 C          -1.6176    4.0624    0.4716 C.ar    1  UNL1        0.0347
      8 N          -2.2183    2.8605    0.7894 N.ar    1  UNL1       -0.3557
      9 C           0.4297    2.9295   -0.3322 C.ar    1  UNL1        0.0344
     10 C           1.8262    2.7701   -0.6081 C.ar    1  UNL1       -0.0396
     11 C           2.0692    1.4522   -0.9141 C.ar    1  UNL1       -0.0396
     12 C           0.8307    0.7313   -0.8573 C.ar    1  UNL1        0.0341
     13 N          -0.1238    1.6593   -0.4837 N.ar    1  UNL1       -0.3596
     14 C          -0.6386   -1.3119   -0.8489 C.2     1  UNL1        0.0487
     15 C          -0.8635   -2.7220   -1.1399 C.2     1  UNL1       -0.0400
     16 C          -2.1469   -3.0017   -0.7808 C.2     1  UNL1       -0.0400
     17 C          -2.7224   -1.7682   -0.2774 C.2     1  UNL1        0.0489
     18 N          -1.7791   -0.7589   -0.3430 N.pl3   1  UNL1       -0.2209
     19 C          -4.5153   -0.3937    0.7414 C.ar    1  UNL1        0.0346
     20 C          -5.7877    0.0910    1.1727 C.ar    1  UNL1       -0.0392
     21 C          -5.6681    1.4569    1.4076 C.ar    1  UNL1       -0.0347
     22 C          -4.3230    1.8290    1.1318 C.ar    1  UNL1        0.0631
     23 N          -3.6735    0.6796    0.7774 N.ar    1  UNL1       -0.3557
     24 C          -4.9689   -2.7714    0.2112 C.ar    1  UNL1        0.0479
     25 C          -5.5335   -3.2681    1.3915 C.ar    1  UNL1        0.1686
     26 C          -6.4263   -4.3342    1.3952 C.ar    1  UNL1        0.1967
     27 C          -6.7755   -4.9425    0.1940 C.ar    1  UNL1        0.1991
     28 C          -6.2349   -4.4735   -0.9989 C.ar    1  UNL1        0.1967
     29 C          -5.3520   -3.3991   -0.9796 C.ar    1  UNL1        0.1686
     30 F          -5.2131   -2.7196    2.5732 F       1  UNL1       -0.2020
     31 F          -6.9416   -4.7842    2.5463 F       1  UNL1       -0.1993
     32 F          -7.6295   -5.9701    0.1854 F       1  UNL1       -0.1993
     33 F          -6.5800   -5.0476   -2.1583 F       1  UNL1       -0.1993
     34 F          -4.8744   -2.9651   -2.1547 F       1  UNL1       -0.2020
     35 C           0.4356    5.3967   -0.0050 C.ar    1  UNL1        0.0481
     36 C           0.0659    6.3938   -0.9119 C.ar    1  UNL1        0.1687
     37 C           0.7027    7.6297   -0.9553 C.ar    1  UNL1        0.1967
     38 C           1.7546    7.8907   -0.0831 C.ar    1  UNL1        0.1991
     39 C           2.1536    6.9181    0.8282 C.ar    1  UNL1        0.1967
     40 C           1.4899    5.6963    0.8629 C.ar    1  UNL1        0.1687
     41 F          -0.9400    6.1760   -1.7736 F       1  UNL1       -0.2020
     42 F           0.3200    8.5609   -1.8374 F       1  UNL1       -0.1993
     43 F           2.3789    9.0712   -0.1195 F       1  UNL1       -0.1993
     44 F           3.1614    7.1685    1.6730 F       1  UNL1       -0.1993
     45 F           1.8955    4.7877    1.7635 F       1  UNL1       -0.2020
     46 C           1.7608   -1.4424   -1.5281 C.ar    1  UNL1       -0.0283
     47 C           2.4021   -1.1589   -2.7447 C.ar    1  UNL1       -0.0567
     48 C           3.4951   -1.9082   -3.1669 C.ar    1  UNL1       -0.0528
     49 C           3.3474   -3.2524   -1.1684 C.ar    1  UNL1       -0.0528
     50 C           2.2482   -2.5067   -0.7535 C.ar    1  UNL1       -0.0567
     51 H          -4.8028    4.8631    1.0238 H       1  UNL1        0.0639
     52 H          -2.5245    6.0914    0.3513 H       1  UNL1        0.0636
     53 H          -1.6799    2.0907    1.1663 H       1  UNL1        0.1657
     54 H           2.5597    3.5605   -0.5431 H       1  UNL1        0.0636
     55 H           3.0286    1.0083   -1.1345 H       1  UNL1        0.0636
     56 H          -1.1057    1.4645   -0.6243 H       1  UNL1        0.1653
     57 H          -0.1422   -3.4010   -1.5709 H       1  UNL1        0.0634
     58 H          -2.6471   -3.9582   -0.8431 H       1  UNL1        0.0634
     59 H          -6.6858   -0.5024    1.2730 H       1  UNL1        0.0636
     60 H          -6.4467    2.1281    1.7432 H       1  UNL1        0.0639
     61 H          -2.7378    0.5520    0.3738 H       1  UNL1        0.1657
     62 H           3.9705   -1.6815   -4.1174 H       1  UNL1        0.0624
     63 H           3.6779   -4.0909   -0.5628 H       1  UNL1        0.0624
     64 H           1.7567   -2.7493    0.1832 H       1  UNL1        0.0621
     65 H           2.0257   -0.3534   -3.3677 H       1  UNL1        0.0621
     66 C           4.0001   -2.9551   -2.3789 C.ar    1  UNL1       -0.0054
     67 C           5.1602   -3.7221   -2.8757 C.2     1  UNL1        0.0528
     68 H           5.1941   -3.9157   -3.9468 H       1  UNL1        0.0851
     69 N           6.1764   -4.1796   -2.2312 N.2     1  UNL1       -0.1874
     70 N           6.2714   -3.9119   -0.8991 N.am    1  UNL1       -0.2025
     71 H           5.6678   -3.2019   -0.4941 H       1  UNL1        0.1776
     72 C           7.3808   -4.3334   -0.1873 C.2     1  UNL1        0.2699
     73 O           8.2461   -5.0645   -0.6467 O.2     1  UNL1       -0.2679
     74 C           7.4204   -3.8401    1.2058 C.ar    1  UNL1        0.0755
     75 C           6.5326   -3.0849    1.9412 C.ar    1  UNL1       -0.0424
     76 S           8.8229   -4.2624    2.1534 S.2     1  UNL1       -0.0921
     77 C           6.9794   -2.8395    3.2687 C.ar    1  UNL1       -0.0540
     78 H           5.5843   -2.7190    1.5609 H       1  UNL1        0.0630
     79 C           8.1992   -3.4124    3.5228 C.ar    1  UNL1       -0.0236
     80 H           6.4198   -2.2663    3.9993 H       1  UNL1        0.0623
     81 H           8.7667   -3.3813    4.4441 H       1  UNL1        0.0693
@<TRIPOS>BOND
     1     1     7    1
     2     1     9    1
     3     1    35    1
     4     2    12    1
     5     2    14    1
     6     2    46    1
     7     3    17    1
     8     3    19    1
     9     3    24    1
    10     4     5   ar
    11     4     8   ar
    12     4    22    1
    13     5     6   ar
    14     5    51    1
    15     6     7   ar
    16     6    52    1
    17     7     8   ar
    18     8    53    1
    19     9    10   ar
    20     9    13   ar
    21    10    11   ar
    22    10    54    1
    23    11    12   ar
    24    11    55    1
    25    12    13   ar
    26    13    56    1
    27    14    15    2
    28    14    18    1
    29    15    16    1
    30    15    57    1
    31    16    17    2
    32    16    58    1
    33    17    18    1
    34    19    20   ar
    35    19    23   ar
    36    20    21   ar
    37    20    59    1
    38    21    22   ar
    39    21    60    1
    40    22    23   ar
    41    23    61    1
    42    24    25   ar
    43    24    29   ar
    44    25    26   ar
    45    25    30    1
    46    26    27   ar
    47    26    31    1
    48    27    28   ar
    49    27    32    1
    50    28    29   ar
    51    28    33    1
    52    29    34    1
    53    35    36   ar
    54    35    40   ar
    55    36    37   ar
    56    36    41    1
    57    37    38   ar
    58    37    42    1
    59    38    39   ar
    60    38    43    1
    61    39    40   ar
    62    39    44    1
    63    40    45    1
    64    46    47   ar
    65    46    50   ar
    66    47    48   ar
    67    47    65    1
    68    48    62    1
    69    48    66   ar
    70    49    50   ar
    71    49    63    1
    72    49    66   ar
    73    50    64    1
    74    66    67    1
    75    67    68    1
    76    67    69    2
    77    69    70    1
    78    70    71    1
    79    70    72   am
    80    72    73    2
    81    72    74    1
    82    74    75   ar
    83    74    76   ar
    84    75    77   ar
    85    75    78    1
    86    76    79   ar
    87    77    79   ar
    88    77    80    1
    89    79    81    1
