@<TRIPOS>MOLECULE
F10_2_OH_5_F_TD
 68 75 0 0 0
SMALL
GASTEIGER

@<TRIPOS>ATOM
      1 C           3.4338   -0.9664   -0.0957 C.3     1  UNL1        0.1014
      2 C          -0.0140    2.5510    0.0306 C.3     1  UNL1        0.0989
      3 C          -3.4088   -0.9833   -0.1010 C.3     1  UNL1        0.1011
      4 C           0.7086   -3.3293   -0.2953 C.ar    1  UNL1        0.0631
      5 C           1.7226   -4.2228    0.1068 C.ar    1  UNL1       -0.0347
      6 C           2.9214   -3.5089    0.1973 C.ar    1  UNL1       -0.0392
      7 C           2.6644   -2.1549   -0.1377 C.ar    1  UNL1        0.0347
      8 N           1.3206   -2.0976   -0.4523 N.ar    1  UNL1       -0.3557
      9 C           2.8539    0.3130   -0.0962 C.ar    1  UNL1        0.0344
     10 C           3.4952    1.5920   -0.1934 C.ar    1  UNL1       -0.0396
     11 C           2.5338    2.5726   -0.1573 C.ar    1  UNL1       -0.0396
     12 C           1.2496    1.9499   -0.0312 C.ar    1  UNL1        0.0342
     13 N           1.4903    0.5888   -0.0189 N.ar    1  UNL1       -0.3596
     14 C          -1.2599    1.8708    0.0379 C.2     1  UNL1        0.0488
     15 C          -2.5553    2.5351    0.1026 C.2     1  UNL1       -0.0400
     16 C          -3.5035    1.5588    0.0644 C.2     1  UNL1       -0.0400
     17 C          -2.8005    0.2908   -0.0166 C.2     1  UNL1        0.0489
     18 N          -1.4375    0.5189   -0.0271 N.pl3   1  UNL1       -0.2209
     19 C          -2.6589   -2.1716   -0.2528 C.ar    1  UNL1        0.0346
     20 C          -2.9641   -3.5660   -0.2307 C.ar    1  UNL1       -0.0392
     21 C          -1.7634   -4.2682   -0.2736 C.ar    1  UNL1       -0.0347
     22 C          -0.7065   -3.3187   -0.3307 C.ar    1  UNL1        0.0631
     23 N          -1.3002   -2.0867   -0.3507 N.ar    1  UNL1       -0.3557
     24 C          -4.8834   -1.1037   -0.0069 C.ar    1  UNL1        0.0479
     25 C          -5.6338   -1.6948   -1.0302 C.ar    1  UNL1        0.1686
     26 C          -7.0150   -1.8359   -0.9514 C.ar    1  UNL1        0.1967
     27 C          -7.6903   -1.3747    0.1738 C.ar    1  UNL1        0.1991
     28 C          -6.9768   -0.7821    1.2104 C.ar    1  UNL1        0.1967
     29 C          -5.5945   -0.6621    1.1153 C.ar    1  UNL1        0.1686
     30 F          -5.0256   -2.1404   -2.1400 F       1  UNL1       -0.2020
     31 F          -7.6987   -2.3997   -1.9556 F       1  UNL1       -0.1993
     32 F          -9.0183   -1.5005    0.2590 F       1  UNL1       -0.1993
     33 F          -7.6221   -0.3486    2.3010 F       1  UNL1       -0.1993
     34 F          -4.9468   -0.1112    2.1518 F       1  UNL1       -0.2020
     35 C           4.9147   -1.0774   -0.0313 C.ar    1  UNL1        0.0481
     36 C           5.5638   -1.6356    1.0740 C.ar    1  UNL1        0.1687
     37 C           6.9474   -1.7654    1.1348 C.ar    1  UNL1        0.1967
     38 C           7.7275   -1.3142    0.0753 C.ar    1  UNL1        0.1991
     39 C           7.1158   -0.7451   -1.0370 C.ar    1  UNL1        0.1967
     40 C           5.7295   -0.6421   -1.0815 C.ar    1  UNL1        0.1687
     41 F           4.8493   -2.0741    2.1224 F       1  UNL1       -0.2020
     42 F           7.5316   -2.3069    2.2110 F       1  UNL1       -0.1993
     43 F           9.0582   -1.4255    0.1265 F       1  UNL1       -0.1993
     44 F           7.8618   -0.3125   -2.0613 F       1  UNL1       -0.1993
     45 F           5.1794   -0.0965   -2.1772 F       1  UNL1       -0.2020
     46 C          -0.0356    4.0449    0.0569 C.ar    1  UNL1        0.0159
     47 C           0.3999    4.7574    1.1912 C.ar    1  UNL1        0.1215
     48 C           0.3689    6.1553    1.2028 C.ar    1  UNL1       -0.0172
     49 C          -0.0964    6.8651    0.0968 C.ar    1  UNL1       -0.0230
     50 C          -0.5259    6.1535   -1.0137 C.ar    1  UNL1        0.1239
     51 C          -0.4999    4.7666   -1.0488 C.ar    1  UNL1       -0.0185
     52 H           1.5708   -5.2585    0.3790 H       1  UNL1        0.0639
     53 H           3.8662   -3.8974    0.5481 H       1  UNL1        0.0636
     54 H           0.9606   -1.3956   -1.0866 H       1  UNL1        0.1657
     55 H           4.5598    1.7379   -0.3038 H       1  UNL1        0.0636
     56 H           2.6908    3.6384   -0.2356 H       1  UNL1        0.0636
     57 H           0.7887   -0.0445    0.3392 H       1  UNL1        0.1653
     58 H          -2.7132    3.6019    0.1696 H       1  UNL1        0.0634
     59 H          -4.5769    1.6890    0.0746 H       1  UNL1        0.0634
     60 H          -3.9565   -3.9905   -0.1713 H       1  UNL1        0.0636
     61 H          -1.6400   -5.3425   -0.2735 H       1  UNL1        0.0639
     62 H          -0.8801   -1.1563   -0.2337 H       1  UNL1        0.1657
     63 H           0.7041    6.6936    2.0864 H       1  UNL1        0.0655
     64 H          -0.8398    4.2443   -1.9364 H       1  UNL1        0.0650
     65 H          -0.1272    7.9494    0.0941 H       1  UNL1        0.0647
     66 O           0.8377    4.0346    2.2638 O.3     1  UNL1       -0.5065
     67 H           1.0881    4.6478    2.9739 H       1  UNL1        0.2921
     68 F          -0.9793    6.8296   -2.0975 F       1  UNL1       -0.2055
@<TRIPOS>BOND
     1     1     7    1
     2     1     9    1
     3     1    35    1
     4     2    12    1
     5     2    14    1
     6     2    46    1
     7     3    17    1
     8     3    19    1
     9     3    24    1
    10     4     5   ar
    11     4     8   ar
    12     4    22    1
    13     5     6   ar
    14     5    52    1
    15     6     7   ar
    16     6    53    1
    17     7     8   ar
    18     8    54    1
    19     9    10   ar
    20     9    13   ar
    21    10    11   ar
    22    10    55    1
    23    11    12   ar
    24    11    56    1
    25    12    13   ar
    26    13    57    1
    27    14    15    2
    28    14    18    1
    29    15    16    1
    30    15    58    1
    31    16    17    2
    32    16    59    1
    33    17    18    1
    34    19    20   ar
    35    19    23   ar
    36    20    21   ar
    37    20    60    1
    38    21    22   ar
    39    21    61    1
    40    22    23   ar
    41    23    62    1
    42    24    25   ar
    43    24    29   ar
    44    25    26   ar
    45    25    30    1
    46    26    27   ar
    47    26    31    1
    48    27    28   ar
    49    27    32    1
    50    28    29   ar
    51    28    33    1
    52    29    34    1
    53    35    36   ar
    54    35    40   ar
    55    36    37   ar
    56    36    41    1
    57    37    38   ar
    58    37    42    1
    59    38    39   ar
    60    38    43    1
    61    39    40   ar
    62    39    44    1
    63    40    45    1
    64    46    47   ar
    65    46    51   ar
    66    47    48   ar
    67    47    66    1
    68    48    49   ar
    69    48    63    1
    70    49    50   ar
    71    49    65    1
    72    50    51   ar
    73    50    68    1
    74    51    64    1
    75    66    67    1
