@<TRIPOS>MOLECULE
F10Ga_2_4_6_trimethoxyphenyl_TD
 88 99 0 0 0
SMALL
GASTEIGER

@<TRIPOS>ATOM
      1 C          -3.3440   -1.3332   -0.5411 C.3     1  UNL1        0.0000
      2 C          -0.0184    2.2965   -0.3187 C.3     1  UNL1        0.0000
      3 C           3.3840   -1.2641   -0.4127 C.3     1  UNL1        0.0000
      4 C          -0.6687   -3.7174   -0.5989 C.ar    1  UNL1        0.0000
      5 C          -1.7421   -4.6450   -0.7417 C.ar    1  UNL1        0.0000
      6 C          -2.9251   -3.9122   -0.7240 C.ar    1  UNL1        0.0000
      7 C          -2.5768   -2.5248   -0.5820 C.ar    1  UNL1        0.0000
      8 N          -1.2175   -2.4656   -0.4998 N.ar    1  UNL1        0.0000
      9 C          -2.7882   -0.0330   -0.4928 C.ar    1  UNL1        0.0000
     10 C          -3.4945    1.2223   -0.5200 C.ar    1  UNL1        0.0000
     11 C          -2.5702    2.2363   -0.4562 C.ar    1  UNL1        0.0000
     12 C          -1.2646    1.6383   -0.3932 C.ar    1  UNL1        0.0000
     13 N          -1.4331    0.2673   -0.4139 N.ar    1  UNL1        0.0000
     14 C           1.2417    1.6624   -0.3402 C.ar    1  UNL1        0.0000
     15 C           2.5369    2.2863   -0.3061 C.ar    1  UNL1        0.0000
     16 C           3.4830    1.2924   -0.3396 C.ar    1  UNL1        0.0000
     17 C           2.8013    0.0239   -0.3919 C.ar    1  UNL1        0.0000
     18 N           1.4378    0.2952   -0.3905 N.ar    1  UNL1        0.0000
     19 C           2.6418   -2.4722   -0.4613 C.ar    1  UNL1        0.0000
     20 C           3.0247   -3.8467   -0.6277 C.ar    1  UNL1        0.0000
     21 C           1.8589   -4.6054   -0.6889 C.ar    1  UNL1        0.0000
     22 C           0.7618   -3.7054   -0.5533 C.ar    1  UNL1        0.0000
     23 N           1.2810   -2.4458   -0.3978 N.ar    1  UNL1        0.0000
     24 C           4.8623   -1.3786   -0.3610 C.ar    1  UNL1        0.0000
     25 C           5.4895   -2.0195    0.7134 C.ar    1  UNL1        0.0000
     26 C           6.8696   -2.1724    0.7846 C.ar    1  UNL1        0.0000
     27 C           7.6691   -1.6671   -0.2361 C.ar    1  UNL1        0.0000
     28 C           7.0799   -1.0171   -1.3159 C.ar    1  UNL1        0.0000
     29 C           5.6957   -0.8860   -1.3704 C.ar    1  UNL1        0.0000
     30 F           4.7551   -2.4968    1.7335 F       1  UNL1        0.0000
     31 F           7.4345   -2.7867    1.8332 F       1  UNL1        0.0000
     32 F           8.9982   -1.8032   -0.1772 F       1  UNL1        0.0000
     33 F           7.8474   -0.5352   -2.3026 F       1  UNL1        0.0000
     34 F           5.1696   -0.2679   -2.4374 F       1  UNL1        0.0000
     35 C          -0.0438    3.7792   -0.1594 C.ar    1  UNL1        0.0000
     36 C           0.2395    4.6460   -1.2248 C.ar    1  UNL1        0.0000
     37 C           0.2164    6.0407   -1.0655 C.ar    1  UNL1        0.0000
     38 C          -0.1035    6.5670    0.1886 C.ar    1  UNL1        0.0000
     39 C          -0.3966    5.7311    1.2727 C.ar    1  UNL1        0.0000
     40 C          -0.3606    4.3487    1.0909 C.ar    1  UNL1        0.0000
     41 C          -4.8230   -1.4531   -0.5192 C.ar    1  UNL1        0.0000
     42 C          -5.5668   -1.0140    0.5820 C.ar    1  UNL1        0.0000
     43 C          -6.9521   -1.1193    0.6326 C.ar    1  UNL1        0.0000
     44 C          -7.6361   -1.6948   -0.4339 C.ar    1  UNL1        0.0000
     45 C          -6.9278   -2.1528   -1.5401 C.ar    1  UNL1        0.0000
     46 C          -5.5426   -2.0245   -1.5735 C.ar    1  UNL1        0.0000
     47 F          -4.9434   -0.4774    1.6460 F       1  UNL1        0.0000
     48 F          -7.6298   -0.6870    1.7050 F       1  UNL1        0.0000
     49 F          -8.9682   -1.8075   -0.3943 F       1  UNL1        0.0000
     50 F          -7.5847   -2.7001   -2.5713 F       1  UNL1        0.0000
     51 F          -4.9023   -2.4645   -2.6663 F       1  UNL1        0.0000
     52 GA          0.0091   -0.9907   -0.1200 Ga      1  UNL1        0.0000
     53 H          -1.6490   -5.7178   -0.8503 H       1  UNL1        0.0000
     54 H          -4.5673    1.3293   -0.6049 H       1  UNL1        0.0000
     55 H          -2.7617    3.2999   -0.4736 H       1  UNL1        0.0000
     56 H           2.7077    3.3529   -0.2702 H       1  UNL1        0.0000
     57 H           4.5563    1.4217   -0.3297 H       1  UNL1        0.0000
     58 H           4.0380   -4.2149   -0.7210 H       1  UNL1        0.0000
     59 H          -3.9268   -4.3083   -0.8238 H       1  UNL1        0.0000
     60 H           1.7921   -5.6760   -0.8327 H       1  UNL1        0.0000
     61 C          -1.1460   -0.6702    2.6899 C.3     1  UNL1        0.0000
     62 C          -1.1817   -0.6120    4.0782 C.2     1  UNL1        0.0000
     63 C          -0.0137   -0.8795    4.7922 C.2     1  UNL1        0.0000
     64 C           1.1503   -1.1999    4.0936 C.2     1  UNL1        0.0000
     65 C           1.1075   -1.2419    2.7053 C.2     1  UNL1        0.0000
     66 N          -0.0209   -0.9795    2.0224 N.pl3   1  UNL1        0.0000
     67 H          -0.0108   -0.8403    5.8773 H       1  UNL1        0.0000
     68 H          -2.0250   -0.4686    2.0879 H       1  UNL1        0.0000
     69 H          -2.1095   -0.3645    4.5823 H       1  UNL1        0.0000
     70 H           2.0791   -1.4154    4.6100 H       1  UNL1        0.0000
     71 H           1.9838   -1.4872    2.1153 H       1  UNL1        0.0000
     72 H          -0.6350    6.1861    2.2248 H       1  UNL1        0.0000
     73 H           0.4380    6.6921   -1.8976 H       1  UNL1        0.0000
     74 O          -0.1549    7.9016    0.4579 O.3     1  UNL1        0.0000
     75 O           0.5314    4.0408   -2.4080 O.3     1  UNL1        0.0000
     76 C           0.1115    8.8125   -0.5987 C.3     1  UNL1        0.0000
     77 H           1.1305    8.6930   -0.9894 H       1  UNL1        0.0000
     78 H          -0.6088    8.7010   -1.4195 H       1  UNL1        0.0000
     79 H           0.0094    9.8102   -0.1667 H       1  UNL1        0.0000
     80 C           0.8412    4.8521   -3.5302 C.3     1  UNL1        0.0000
     81 H           1.0514    4.1603   -4.3480 H       1  UNL1        0.0000
     82 H          -0.0035    5.4946   -3.8114 H       1  UNL1        0.0000
     83 H           1.7278    5.4733   -3.3486 H       1  UNL1        0.0000
     84 O          -0.6176    3.4560    2.0865 O.3     1  UNL1        0.0000
     85 C          -1.0062    3.9530    3.3572 C.3     1  UNL1        0.0000
     86 H          -0.2175    4.5660    3.8121 H       1  UNL1        0.0000
     87 H          -1.9320    4.5394    3.2951 H       1  UNL1        0.0000
     88 H          -1.1790    3.0717    3.9786 H       1  UNL1        0.0000
@<TRIPOS>BOND
     1     1     7    1
     2     1     9    1
     3     1    41    1
     4     2    12    1
     5     2    14    1
     6     2    35    1
     7     3    17    1
     8     3    19    1
     9     3    24    1
    10     4     5   ar
    11     4     8   ar
    12     4    22    1
    13     5     6   ar
    14     5    53    1
    15     6     7   ar
    16     6    59    1
    17     7     8   ar
    18     8    52    1
    19     9    10   ar
    20     9    13   ar
    21    10    11   ar
    22    10    54    1
    23    11    12   ar
    24    11    55    1
    25    12    13   ar
    26    13    52    1
    27    14    15   ar
    28    14    18   ar
    29    15    16   ar
    30    15    56    1
    31    16    17   ar
    32    16    57    1
    33    17    18   ar
    34    18    52    1
    35    19    20   ar
    36    19    23   ar
    37    20    21   ar
    38    20    58    1
    39    21    22   ar
    40    21    60    1
    41    22    23   ar
    42    23    52    1
    43    24    25   ar
    44    24    29   ar
    45    25    26   ar
    46    25    30    1
    47    26    27   ar
    48    26    31    1
    49    27    28   ar
    50    27    32    1
    51    28    29   ar
    52    28    33    1
    53    29    34    1
    54    35    36   ar
    55    35    40   ar
    56    36    37   ar
    57    36    75    1
    58    37    38   ar
    59    37    73    1
    60    38    39   ar
    61    38    74    1
    62    39    40   ar
    63    39    72    1
    64    40    84    1
    65    41    42   ar
    66    41    46   ar
    67    42    43   ar
    68    42    47    1
    69    43    44   ar
    70    43    48    1
    71    44    45   ar
    72    44    49    1
    73    45    46   ar
    74    45    50    1
    75    46    51    1
    76    52    66    1
    77    61    62    1
    78    61    66    1
    79    61    68    1
    80    62    63    2
    81    62    69    1
    82    63    64    1
    83    63    67    1
    84    64    65    2
    85    64    70    1
    86    65    66    1
    87    65    71    1
    88    74    76    1
    89    75    80    1
    90    76    77    1
    91    76    78    1
    92    76    79    1
    93    80    81    1
    94    80    82    1
    95    80    83    1
    96    84    85    1
    97    85    86    1
    98    85    87    1
    99    85    88    1
