@<TRIPOS>MOLECULE
F10Ga_2_4_OH_TD
 78 89 0 0 0
SMALL
GASTEIGER

@<TRIPOS>ATOM
      1 C          -3.3610   -0.8704   -0.5254 C.3     1  UNL1        0.0000
      2 C          -0.0176    2.7351   -0.1414 C.3     1  UNL1        0.0000
      3 C           3.3633   -0.8395   -0.4477 C.3     1  UNL1        0.0000
      4 C          -0.6997   -3.2475   -0.8392 C.ar    1  UNL1        0.0000
      5 C          -1.7804   -4.1617   -1.0135 C.ar    1  UNL1        0.0000
      6 C          -2.9595   -3.4300   -0.9126 C.ar    1  UNL1        0.0000
      7 C          -2.6018   -2.0561   -0.6855 C.ar    1  UNL1        0.0000
      8 N          -1.2410   -2.0040   -0.6424 N.ar    1  UNL1        0.0000
      9 C          -2.7986    0.4218   -0.3909 C.ar    1  UNL1        0.0000
     10 C          -3.5024    1.6766   -0.3507 C.ar    1  UNL1        0.0000
     11 C          -2.5758    2.6859   -0.2518 C.ar    1  UNL1        0.0000
     12 C          -1.2697    2.0835   -0.2185 C.ar    1  UNL1        0.0000
     13 N          -1.4422    0.7141   -0.3000 N.ar    1  UNL1        0.0000
     14 C           1.2395    2.0918   -0.1878 C.ar    1  UNL1        0.0000
     15 C           2.5397    2.7019   -0.1140 C.ar    1  UNL1        0.0000
     16 C           3.4786    1.7043   -0.1977 C.ar    1  UNL1        0.0000
     17 C           2.7884    0.4472   -0.3303 C.ar    1  UNL1        0.0000
     18 N           1.4260    0.7276   -0.3108 N.ar    1  UNL1        0.0000
     19 C           2.6169   -2.0341   -0.6084 C.ar    1  UNL1        0.0000
     20 C           2.9945   -3.3981   -0.8584 C.ar    1  UNL1        0.0000
     21 C           1.8252   -4.1425   -0.9859 C.ar    1  UNL1        0.0000
     22 C           0.7312   -3.2447   -0.8092 C.ar    1  UNL1        0.0000
     23 N           1.2561   -2.0011   -0.5723 N.ar    1  UNL1        0.0000
     24 C           4.8400   -0.9682   -0.3732 C.ar    1  UNL1        0.0000
     25 C           5.4369   -1.6751    0.6765 C.ar    1  UNL1        0.0000
     26 C           6.8140   -1.8408    0.7716 C.ar    1  UNL1        0.0000
     27 C           7.6400   -1.2816   -0.1988 C.ar    1  UNL1        0.0000
     28 C           7.0807   -0.5655   -1.2523 C.ar    1  UNL1        0.0000
     29 C           5.6987   -0.4230   -1.3322 C.ar    1  UNL1        0.0000
     30 F           4.6742   -2.2057    1.6488 F       1  UNL1        0.0000
     31 F           7.3507   -2.5193    1.7949 F       1  UNL1        0.0000
     32 F           8.9664   -1.4289   -0.1165 F       1  UNL1        0.0000
     33 F           7.8743   -0.0312   -2.1899 F       1  UNL1        0.0000
     34 F           5.1999    0.2601   -2.3722 F       1  UNL1        0.0000
     35 C          -0.0331    4.2209   -0.0026 C.ar    1  UNL1        0.0000
     36 C           0.3770    5.0620   -1.0538 C.ar    1  UNL1        0.0000
     37 C           0.3486    6.4532   -0.9130 C.ar    1  UNL1        0.0000
     38 C          -0.1020    7.0265    0.2793 C.ar    1  UNL1        0.0000
     39 C          -0.5247    6.2128    1.3341 C.ar    1  UNL1        0.0000
     40 C          -0.4822    4.8308    1.1761 C.ar    1  UNL1        0.0000
     41 C          -4.8390   -0.9875   -0.4621 C.ar    1  UNL1        0.0000
     42 C          -5.5366   -0.6400    0.7003 C.ar    1  UNL1        0.0000
     43 C          -6.9193   -0.7462    0.7968 C.ar    1  UNL1        0.0000
     44 C          -7.6477   -1.2268   -0.2873 C.ar    1  UNL1        0.0000
     45 C          -6.9858   -1.5919   -1.4551 C.ar    1  UNL1        0.0000
     46 C          -5.6019   -1.4664   -1.5315 C.ar    1  UNL1        0.0000
     47 F          -4.8681   -0.1964    1.7801 F       1  UNL1        0.0000
     48 F          -7.5520   -0.4051    1.9277 F       1  UNL1        0.0000
     49 F          -8.9776   -1.3390   -0.2050 F       1  UNL1        0.0000
     50 F          -7.6847   -2.0498   -2.5019 F       1  UNL1        0.0000
     51 F          -5.0066   -1.8168   -2.6806 F       1  UNL1        0.0000
     52 GA         -0.0037   -0.5733   -0.1457 Ga      1  UNL1        0.0000
     53 H          -1.6943   -5.2247   -1.1978 H       1  UNL1        0.0000
     54 H          -4.5754    1.7889   -0.4236 H       1  UNL1        0.0000
     55 H          -2.7685    3.7488   -0.2260 H       1  UNL1        0.0000
     56 H           2.7213    3.7627   -0.0168 H       1  UNL1        0.0000
     57 H           4.5528    1.8251   -0.1751 H       1  UNL1        0.0000
     58 H           4.0072   -3.7662   -0.9579 H       1  UNL1        0.0000
     59 H          -3.9650   -3.8171   -1.0091 H       1  UNL1        0.0000
     60 H           1.7543   -5.2016   -1.1974 H       1  UNL1        0.0000
     61 C          -1.1876   -0.7208    2.6610 C.3     1  UNL1        0.0000
     62 C          -1.2532   -0.9100    4.0361 C.2     1  UNL1        0.0000
     63 C          -0.0848   -1.2309    4.7270 C.2     1  UNL1        0.0000
     64 C           1.1097   -1.3553    4.0178 C.2     1  UNL1        0.0000
     65 C           1.0965   -1.1556    2.6426 C.2     1  UNL1        0.0000
     66 N          -0.0328   -0.8425    1.9820 N.pl3   1  UNL1        0.0000
     67 H          -0.1052   -1.3838    5.8017 H       1  UNL1        0.0000
     68 H          -2.0676   -0.4702    2.0788 H       1  UNL1        0.0000
     69 H          -2.2035   -0.8059    4.5480 H       1  UNL1        0.0000
     70 H           2.0402   -1.6047    4.5158 H       1  UNL1        0.0000
     71 H           1.9979   -1.2501    2.0469 H       1  UNL1        0.0000
     72 H          -0.8722    6.6688    2.2547 H       1  UNL1        0.0000
     73 H           0.6667    7.0889   -1.7388 H       1  UNL1        0.0000
     74 H          -0.8047    4.1915    1.9926 H       1  UNL1        0.0000
     75 O          -0.1491    8.3769    0.4624 O.3     1  UNL1        0.0000
     76 H           0.1688    8.8192   -0.3417 H       1  UNL1        0.0000
     77 O           0.7911    4.4735   -2.2107 O.3     1  UNL1        0.0000
     78 H           1.0434    5.1628   -2.8465 H       1  UNL1        0.0000
@<TRIPOS>BOND
     1     1     7    1
     2     1     9    1
     3     1    41    1
     4     2    12    1
     5     2    14    1
     6     2    35    1
     7     3    17    1
     8     3    19    1
     9     3    24    1
    10     4     5   ar
    11     4     8   ar
    12     4    22    1
    13     5     6   ar
    14     5    53    1
    15     6     7   ar
    16     6    59    1
    17     7     8   ar
    18     8    52    1
    19     9    10   ar
    20     9    13   ar
    21    10    11   ar
    22    10    54    1
    23    11    12   ar
    24    11    55    1
    25    12    13   ar
    26    13    52    1
    27    14    15   ar
    28    14    18   ar
    29    15    16   ar
    30    15    56    1
    31    16    17   ar
    32    16    57    1
    33    17    18   ar
    34    18    52    1
    35    19    20   ar
    36    19    23   ar
    37    20    21   ar
    38    20    58    1
    39    21    22   ar
    40    21    60    1
    41    22    23   ar
    42    23    52    1
    43    24    25   ar
    44    24    29   ar
    45    25    26   ar
    46    25    30    1
    47    26    27   ar
    48    26    31    1
    49    27    28   ar
    50    27    32    1
    51    28    29   ar
    52    28    33    1
    53    29    34    1
    54    35    36   ar
    55    35    40   ar
    56    36    37   ar
    57    36    77    1
    58    37    38   ar
    59    37    73    1
    60    38    39   ar
    61    38    75    1
    62    39    40   ar
    63    39    72    1
    64    40    74    1
    65    41    42   ar
    66    41    46   ar
    67    42    43   ar
    68    42    47    1
    69    43    44   ar
    70    43    48    1
    71    44    45   ar
    72    44    49    1
    73    45    46   ar
    74    45    50    1
    75    46    51    1
    76    52    66    1
    77    61    62    1
    78    61    66    1
    79    61    68    1
    80    62    63    2
    81    62    69    1
    82    63    64    1
    83    63    67    1
    84    64    65    2
    85    64    70    1
    86    65    66    1
    87    65    71    1
    88    75    76    1
    89    77    78    1
