# 150g_N_TD
# Created by GaussView 6.0.16
#

#
#

@<TRIPOS>MOLECULE
Molecule Name
82 90
SMALL
NO_CHARGES


@<TRIPOS>ATOM
1 C1     2.5572    -0.9783    -0.1631 C
2 C2    -1.1763     2.2338    -0.0382 C
3 C3    -4.2664    -1.5653    -0.0583 C
4 C4     0.0295    -3.5549    -0.3264 C
5 C5     1.1201    -4.3616     0.0607 C
6 C6     2.2559    -3.5504     0.1347 C
7 C7     1.8823    -2.2226    -0.1946 C
8 N8     0.5332    -2.2774    -0.4895 N
9 C9     1.8728     0.2481    -0.1690 C
10 C10     2.4020     1.5730    -0.3025 C
11 C11     1.3615     2.4700    -0.2793 C
12 C12     0.1361     1.7446    -0.1175 C
13 N13     0.4887     0.4112    -0.0780 N
14 C14    -2.3632     1.4567     0.0111 C
15 C15    -3.7077     2.0114     0.1038 C
16 C16    -4.5709     0.9594     0.0997 C
17 C17    -3.7661    -0.2462     0.0085 C
18 N18    -2.4267     0.0965    -0.0370 N
19 C19    -3.4221    -2.6877    -0.2280 C
20 C20    -3.6070    -4.1018    -0.1833 C
21 C21    -2.3518    -4.7003    -0.2494 C
22 C22    -1.3824    -3.6652    -0.3446 C
23 N23    -2.0794    -2.4885    -0.3670 N
24 C24     4.0412    -0.9710    -0.1002 C
25 C25     4.7465    -1.4637     1.0006 C
26 C26     6.1318    -1.4921     1.0509 C
27 C27     6.2186    -0.4478    -1.0788 C
28 C28     4.8335    -0.4809    -1.1413 C
29 H29     1.0586    -5.4066     0.3325 H
30 H30     3.2359    -3.8564     0.4699 H
31 H31     0.1088    -1.6079    -1.1184 H
32 H32     3.4480     1.8051    -0.4356 H
33 H33     1.4319     3.5420    -0.3930 H
34 H34    -0.1507    -0.2690     0.3099 H
35 H35    -3.9574     3.0610     0.1714 H
36 H36    -5.6508     0.9991     0.1359 H
37 H37    -4.5572    -4.6086    -0.0910 H
38 H38    -2.1368    -5.7601    -0.2376 H
39 H39    -1.7366    -1.5249    -0.2714 H
40 F40     4.2471     0.0366    -2.2382 F
41 F41     6.8776     0.1286    -2.1089 F
42 F42     4.0741    -1.9834     2.0460 F
43 F43     6.7087    -2.0672     2.1297 F
44 C44     6.9389    -0.9651     0.0192 C
45 N45     8.3114    -0.9587     0.0862 N
46 C46     9.0067    -0.7619     1.3694 C
47 C47     9.1397    -1.0837    -1.1238 C
48 C48    10.3269    -0.0303     1.1285 C
49 H49     9.1936    -1.7193     1.8745 H
50 C50    10.4771    -1.7287    -0.7602 C
51 H51     9.3121    -0.1075    -1.5974 H
52 H52    10.7963     0.1888     2.0936 H
53 H53    11.0520    -1.8987    -1.6770 H
54 H54    10.1041     0.9344     0.6572 H
55 H55     8.3624    -0.1707     2.0249 H
56 H56     8.6034    -1.7039    -1.8464 H
57 H57    10.2770    -2.7144    -0.3238 H
58 C58    11.2733    -0.8558     0.2329 C
59 H59    11.9417    -0.1779    -0.3102 H
60 H60    11.9123    -1.4983     0.8496 H
61 C61    -1.3170     3.7168    -0.0311 C
62 C62    -0.8284     4.4949     1.0232 C
63 C63    -1.9304     4.4022    -1.0846 C
64 C64    -0.9415     5.8813     1.0359 C
65 C65    -2.0670     5.7863    -1.0887 C
66 C66    -1.5671     6.5293    -0.0240 C
67 C67    -5.7223    -1.8093     0.0768 C
68 C68    -6.4477    -2.4654    -0.9247 C
69 C69    -6.4369    -1.4251     1.2177 C
70 C70    -7.8096    -2.7209    -0.8080 C
71 C71    -7.8011    -1.6605     1.3510 C
72 C72    -8.4905    -2.3139     0.3347 C
73 F73    -1.6860     7.8608    -0.0207 F
74 F74    -2.6610     6.4082    -2.1154 F
75 F75    -2.4100     3.7248    -2.1377 F
76 F76    -5.8340    -2.8624    -2.0496 F
77 F77    -0.4619     6.5934     2.0640 F
78 F78    -0.2245     3.9086     2.0677 F
79 F79    -8.4704    -3.3438    -1.7923 F
80 F80    -9.8004    -2.5498     0.4555 F
81 F81    -5.8097    -0.8175     2.2350 F
82 F82    -8.4505    -1.2784     2.4581 F
@<TRIPOS>BOND
1 1 7 Ar
2 1 9 Ar
3 1 24 1
4 2 12 Ar
5 2 14 Ar
6 2 61 1
7 3 17 Ar
8 3 19 Ar
9 3 67 1
10 4 5 Ar
11 4 8 1
12 4 22 Ar
13 5 6 Ar
14 5 29 1
15 6 7 Ar
16 6 30 1
17 7 8 1
18 8 31 1
19 9 10 Ar
20 9 13 1
21 10 11 2
22 10 32 1
23 11 12 Ar
24 11 33 1
25 12 13 Ar
26 13 34 1
27 14 15 1
28 14 18 Ar
29 15 16 2
30 15 35 1
31 16 17 1
32 16 36 1
33 17 18 1
34 19 20 Ar
35 19 23 Ar
36 20 21 Ar
37 20 37 1
38 21 22 Ar
39 21 38 1
40 22 23 Ar
41 23 39 1
42 24 25 Ar
43 24 28 Ar
44 25 26 Ar
45 25 42 1
46 26 43 1
47 26 44 Ar
48 27 28 Ar
49 27 41 1
50 27 44 Ar
51 28 40 1
52 44 45 Ar
53 45 46 1
54 45 47 1
55 46 48 1
56 46 49 1
57 46 55 1
58 47 50 1
59 47 51 1
60 47 56 1
61 48 52 1
62 48 54 1
63 48 58 1
64 50 53 1
65 50 57 1
66 50 58 1
67 58 59 1
68 58 60 1
69 61 62 Ar
70 61 63 Ar
71 62 64 Ar
72 62 78 1
73 63 65 Ar
74 63 75 1
75 64 66 Ar
76 64 77 1
77 65 66 Ar
78 65 74 1
79 66 73 1
80 67 68 Ar
81 67 69 Ar
82 68 70 Ar
83 68 76 1
84 69 71 Ar
85 69 81 1
86 70 72 Ar
87 70 79 1
88 71 72 Ar
89 71 82 1
90 72 80 1
