@<TRIPOS>MOLECULE
F10Ga_2_Br_4_OH_TD
 77 88 0 0 0
SMALL
GASTEIGER

@<TRIPOS>ATOM
      1 C          -3.3478   -1.0826   -0.4583 C.3     1  UNL1        0.0000
      2 C          -0.0183    2.4559    0.3495 C.3     1  UNL1        0.0000
      3 C           3.3790   -1.0299   -0.3841 C.3     1  UNL1        0.0000
      4 C          -0.6750   -3.4011   -1.0203 C.ar    1  UNL1        0.0000
      5 C          -1.7511   -4.2838   -1.3335 C.ar    1  UNL1        0.0000
      6 C          -2.9331   -3.5738   -1.1514 C.ar    1  UNL1        0.0000
      7 C          -2.5825   -2.2418   -0.7392 C.ar    1  UNL1        0.0000
      8 N          -1.2228   -2.1969   -0.6630 N.ar    1  UNL1        0.0000
      9 C          -2.7906    0.1868   -0.1752 C.ar    1  UNL1        0.0000
     10 C          -3.4978    1.4265    0.0186 C.ar    1  UNL1        0.0000
     11 C          -2.5737    2.4185    0.2390 C.ar    1  UNL1        0.0000
     12 C          -1.2676    1.8190    0.1941 C.ar    1  UNL1        0.0000
     13 N          -1.4347    0.4700   -0.0520 N.ar    1  UNL1        0.0000
     14 C           1.2430    1.8358    0.2278 C.ar    1  UNL1        0.0000
     15 C           2.5391    2.4511    0.3300 C.ar    1  UNL1        0.0000
     16 C           3.4837    1.4745    0.1300 C.ar    1  UNL1        0.0000
     17 C           2.7995    0.2301   -0.1113 C.ar    1  UNL1        0.0000
     18 N           1.4362    0.4930   -0.0315 N.ar    1  UNL1        0.0000
     19 C           2.6363   -2.2039   -0.6658 C.ar    1  UNL1        0.0000
     20 C           3.0186   -3.5169   -1.1073 C.ar    1  UNL1        0.0000
     21 C           1.8527   -4.2477   -1.3144 C.ar    1  UNL1        0.0000
     22 C           0.7557   -3.3945   -0.9921 C.ar    1  UNL1        0.0000
     23 N           1.2763   -2.1911   -0.5927 N.ar    1  UNL1        0.0000
     24 C           4.8585   -1.1500   -0.3711 C.ar    1  UNL1        0.0000
     25 C           5.4949   -1.9505    0.5831 C.ar    1  UNL1        0.0000
     26 C           6.8757   -2.1098    0.6161 C.ar    1  UNL1        0.0000
     27 C           7.6636   -1.4499   -0.3222 C.ar    1  UNL1        0.0000
     28 C           7.0637   -0.6410   -1.2824 C.ar    1  UNL1        0.0000
     29 C           5.6787   -0.5054   -1.3015 C.ar    1  UNL1        0.0000
     30 F           4.7674   -2.5830    1.5202 F       1  UNL1        0.0000
     31 F           7.4522   -2.8792    1.5494 F       1  UNL1        0.0000
     32 F           8.9929   -1.5906   -0.2991 F       1  UNL1        0.0000
     33 F           7.8212   -0.0101   -2.1888 F       1  UNL1        0.0000
     34 F           5.1386    0.2687   -2.2528 F       1  UNL1        0.0000
     35 C          -0.0321    3.9210    0.6385 C.ar    1  UNL1        0.0000
     36 C          -0.0417    4.8951   -0.3673 C.ar    1  UNL1        0.0000
     37 C          -0.0547    6.2598   -0.0839 C.ar    1  UNL1        0.0000
     38 C          -0.0576    6.6809    1.2489 C.ar    1  UNL1        0.0000
     39 C          -0.0474    5.7355    2.2803 C.ar    1  UNL1        0.0000
     40 C          -0.0355    4.3822    1.9648 C.ar    1  UNL1        0.0000
     41 C          -4.8262   -1.2088   -0.4304 C.ar    1  UNL1        0.0000
     42 C          -5.5412   -1.0024    0.7547 C.ar    1  UNL1        0.0000
     43 C          -6.9245   -1.1242    0.8184 C.ar    1  UNL1        0.0000
     44 C          -7.6354   -1.4752   -0.3254 C.ar    1  UNL1        0.0000
     45 C          -6.9558   -1.6982   -1.5187 C.ar    1  UNL1        0.0000
     46 C          -5.5717   -1.5584   -1.5604 C.ar    1  UNL1        0.0000
     47 F          -4.8899   -0.6867    1.8886 F       1  UNL1        0.0000
     48 F          -7.5744   -0.9218    1.9724 F       1  UNL1        0.0000
     49 F          -8.9657   -1.6004   -0.2759 F       1  UNL1        0.0000
     50 F          -7.6378   -2.0312   -2.6221 F       1  UNL1        0.0000
     51 F          -4.9579   -1.7661   -2.7339 F       1  UNL1        0.0000
     52 GA          0.0090   -0.8227   -0.0156 Ga      1  UNL1        0.0000
     53 H          -1.6593   -5.3121   -1.6580 H       1  UNL1        0.0000
     54 H          -4.5714    1.5433   -0.0360 H       1  UNL1        0.0000
     55 H          -2.7687    3.4695    0.3997 H       1  UNL1        0.0000
     56 H           2.7147    3.5009    0.5184 H       1  UNL1        0.0000
     57 H           4.5570    1.6041    0.1365 H       1  UNL1        0.0000
     58 H           4.0313   -3.8558   -1.2816 H       1  UNL1        0.0000
     59 H          -3.9356   -3.9450   -1.3160 H       1  UNL1        0.0000
     60 H           1.7847   -5.2677   -1.6695 H       1  UNL1        0.0000
     61 C          -1.1726   -1.2881    2.7530 C.3     1  UNL1        0.0000
     62 C          -1.2254   -1.6079    4.1042 C.2     1  UNL1        0.0000
     63 C          -0.0416   -1.9399    4.7629 C.2     1  UNL1        0.0000
     64 C           1.1553   -1.9455    4.0465 C.2     1  UNL1        0.0000
     65 C           1.1291   -1.6178    2.6963 C.2     1  UNL1        0.0000
     66 N          -0.0152   -1.2938    2.0680 N.pl3   1  UNL1        0.0000
     67 H          -0.0518   -2.1932    5.8186 H       1  UNL1        0.0000
     68 H          -2.0639   -1.0227    2.1952 H       1  UNL1        0.0000
     69 H          -2.1776   -1.5946    4.6228 H       1  UNL1        0.0000
     70 H           2.0970   -2.2004    4.5200 H       1  UNL1        0.0000
     71 H           2.0308   -1.6150    2.0934 H       1  UNL1        0.0000
     72 H          -0.0497    6.0747    3.3107 H       1  UNL1        0.0000
     73 H          -0.0616    6.9849   -0.8919 H       1  UNL1        0.0000
     74 H          -0.0282    3.6459    2.7629 H       1  UNL1        0.0000
     75 O          -0.0697    7.9968    1.5973 O.3     1  UNL1        0.0000
     76 H          -0.0749    8.5426    0.7933 H       1  UNL1        0.0000
     77 BR         -0.0357    4.3674   -2.2051 Br      1  UNL1        0.0000
@<TRIPOS>BOND
     1     1     7    1
     2     1     9    1
     3     1    41    1
     4     2    12    1
     5     2    14    1
     6     2    35    1
     7     3    17    1
     8     3    19    1
     9     3    24    1
    10     4     5   ar
    11     4     8   ar
    12     4    22    1
    13     5     6   ar
    14     5    53    1
    15     6     7   ar
    16     6    59    1
    17     7     8   ar
    18     8    52    1
    19     9    10   ar
    20     9    13   ar
    21    10    11   ar
    22    10    54    1
    23    11    12   ar
    24    11    55    1
    25    12    13   ar
    26    13    52    1
    27    14    15   ar
    28    14    18   ar
    29    15    16   ar
    30    15    56    1
    31    16    17   ar
    32    16    57    1
    33    17    18   ar
    34    18    52    1
    35    19    20   ar
    36    19    23   ar
    37    20    21   ar
    38    20    58    1
    39    21    22   ar
    40    21    60    1
    41    22    23   ar
    42    23    52    1
    43    24    25   ar
    44    24    29   ar
    45    25    26   ar
    46    25    30    1
    47    26    27   ar
    48    26    31    1
    49    27    28   ar
    50    27    32    1
    51    28    29   ar
    52    28    33    1
    53    29    34    1
    54    35    36   ar
    55    35    40   ar
    56    36    37   ar
    57    36    77    1
    58    37    38   ar
    59    37    73    1
    60    38    39   ar
    61    38    75    1
    62    39    40   ar
    63    39    72    1
    64    40    74    1
    65    41    42   ar
    66    41    46   ar
    67    42    43   ar
    68    42    47    1
    69    43    44   ar
    70    43    48    1
    71    44    45   ar
    72    44    49    1
    73    45    46   ar
    74    45    50    1
    75    46    51    1
    76    52    66    1
    77    61    62    1
    78    61    66    1
    79    61    68    1
    80    62    63    2
    81    62    69    1
    82    63    64    1
    83    63    67    1
    84    64    65    2
    85    64    70    1
    86    65    66    1
    87    65    71    1
    88    75    76    1
