@<TRIPOS>MOLECULE
F10Ga_2_OH_5_Br_TD
 77 88 0 0 0
SMALL
GASTEIGER

@<TRIPOS>ATOM
      1 C          -3.4836   -0.9977   -0.6038 C.3     1  UNL1        0.0000
      2 C           0.0711    2.3114    0.2305 C.3     1  UNL1        0.0000
      3 C           3.2289   -1.4024   -0.4783 C.3     1  UNL1        0.0000
      4 C          -0.9713   -3.4938   -1.1423 C.ar    1  UNL1        0.0000
      5 C          -2.1037   -4.3058   -1.4486 C.ar    1  UNL1        0.0000
      6 C          -3.2357   -3.5162   -1.2773 C.ar    1  UNL1        0.0000
      7 C          -2.7971   -2.2068   -0.8770 C.ar    1  UNL1        0.0000
      8 N          -1.4373   -2.2513   -0.8009 N.ar    1  UNL1        0.0000
      9 C          -2.8435    0.2324   -0.3239 C.ar    1  UNL1        0.0000
     10 C          -3.4665    1.5190   -0.1515 C.ar    1  UNL1        0.0000
     11 C          -2.4792    2.4472    0.0708 C.ar    1  UNL1        0.0000
     12 C          -1.2171    1.7594    0.0528 C.ar    1  UNL1        0.0000
     13 N          -1.4729    0.4235   -0.1854 N.ar    1  UNL1        0.0000
     14 C           1.2900    1.6080    0.1073 C.ar    1  UNL1        0.0000
     15 C           2.6261    2.1204    0.2644 C.ar    1  UNL1        0.0000
     16 C           3.5006    1.0810    0.0651 C.ar    1  UNL1        0.0000
     17 C           2.7338   -0.1037   -0.2206 C.ar    1  UNL1        0.0000
     18 N           1.3916    0.2599   -0.1793 N.ar    1  UNL1        0.0000
     19 C           2.4115   -2.5237   -0.7674 C.ar    1  UNL1        0.0000
     20 C           2.7067   -3.8691   -1.1765 C.ar    1  UNL1        0.0000
     21 C           1.4950   -4.5200   -1.3897 C.ar    1  UNL1        0.0000
     22 C           0.4567   -3.5843   -1.1054 C.ar    1  UNL1        0.0000
     23 N           1.0549   -2.4125   -0.7211 N.ar    1  UNL1        0.0000
     24 C           4.6949   -1.6267   -0.4189 C.ar    1  UNL1        0.0000
     25 C           5.2460   -2.4605    0.5595 C.ar    1  UNL1        0.0000
     26 C           6.6117   -2.7091    0.6384 C.ar    1  UNL1        0.0000
     27 C           7.4713   -2.1080   -0.2764 C.ar    1  UNL1        0.0000
     28 C           6.9571   -1.2691   -1.2603 C.ar    1  UNL1        0.0000
     29 C           5.5854   -1.0439   -1.3251 C.ar    1  UNL1        0.0000
     30 F           4.4496   -3.0369    1.4772 F       1  UNL1        0.0000
     31 F           7.1063   -3.5076    1.5939 F       1  UNL1        0.0000
     32 F           8.7872   -2.3341   -0.2077 F       1  UNL1        0.0000
     33 F           7.7831   -0.6946   -2.1440 F       1  UNL1        0.0000
     34 F           5.1275   -0.2414   -2.2961 F       1  UNL1        0.0000
     35 C           0.1493    3.7638    0.5624 C.ar    1  UNL1        0.0000
     36 C           0.6639    4.6809   -0.3609 C.ar    1  UNL1        0.0000
     37 C           0.7461    6.0350   -0.0459 C.ar    1  UNL1        0.0000
     38 C           0.3128    6.5093    1.1885 C.ar    1  UNL1        0.0000
     39 C          -0.2016    5.6062    2.1168 C.ar    1  UNL1        0.0000
     40 C          -0.2814    4.2430    1.8158 C.ar    1  UNL1        0.0000
     41 C          -4.9670   -1.0240   -0.5743 C.ar    1  UNL1        0.0000
     42 C          -5.6660   -0.7547    0.6079 C.ar    1  UNL1        0.0000
     43 C          -7.0542   -0.7874    0.6733 C.ar    1  UNL1        0.0000
     44 C          -7.7876   -1.1077   -0.4654 C.ar    1  UNL1        0.0000
     45 C          -7.1249   -1.3886   -1.6559 C.ar    1  UNL1        0.0000
     46 C          -5.7349   -1.3386   -1.6996 C.ar    1  UNL1        0.0000
     47 F          -4.9955   -0.4651    1.7372 F       1  UNL1        0.0000
     48 F          -7.6884   -0.5278    1.8247 F       1  UNL1        0.0000
     49 F          -9.1231   -1.1463   -0.4140 F       1  UNL1        0.0000
     50 F          -7.8280   -1.6906   -2.7549 F       1  UNL1        0.0000
     51 F          -5.1374   -1.6002   -2.8710 F       1  UNL1        0.0000
     52 GA         -0.1190   -0.9622   -0.1450 Ga      1  UNL1        0.0000
     53 H          -2.0805   -5.3413   -1.7623 H       1  UNL1        0.0000
     54 H          -4.5286    1.7082   -0.2238 H       1  UNL1        0.0000
     55 H          -2.6036    3.5113    0.2139 H       1  UNL1        0.0000
     56 H           2.8763    3.1464    0.4930 H       1  UNL1        0.0000
     57 H           4.5797    1.1298    0.1092 H       1  UNL1        0.0000
     58 H           3.6957   -4.2829   -1.3233 H       1  UNL1        0.0000
     59 H          -4.2606   -3.8213   -1.4401 H       1  UNL1        0.0000
     60 H           1.3605   -5.5403   -1.7247 H       1  UNL1        0.0000
     61 C          -1.2906   -1.2155    2.6551 C.3     1  UNL1        0.0000
     62 C          -1.3593   -1.5177    4.0098 C.2     1  UNL1        0.0000
     63 C          -0.2308   -2.0417    4.6397 C.2     1  UNL1        0.0000
     64 C           0.9293   -2.2472    3.8931 C.2     1  UNL1        0.0000
     65 C           0.9221   -1.9229    2.5421 C.2     1  UNL1        0.0000
     66 N          -0.1694   -1.4166    1.9405 N.pl3   1  UNL1        0.0000
     67 H          -0.2552   -2.2879    5.6969 H       1  UNL1        0.0000
     68 H          -2.1398   -0.8079    2.1178 H       1  UNL1        0.0000
     69 H          -2.2819   -1.3446    4.5527 H       1  UNL1        0.0000
     70 H           1.8280   -2.6541    4.3433 H       1  UNL1        0.0000
     71 H           1.7960   -2.0700    1.9170 H       1  UNL1        0.0000
     72 H          -0.5351    5.9661    3.0878 H       1  UNL1        0.0000
     73 H           0.9944    4.3225   -1.3289 H       1  UNL1        0.0000
     74 H           0.3737    7.5645    1.4293 H       1  UNL1        0.0000
     75 O          -0.7606    3.3341    2.7113 O.3     1  UNL1        0.0000
     76 H          -1.0235    3.8009    3.5218 H       1  UNL1        0.0000
     77 BR          1.4569    7.2615   -1.3329 Br      1  UNL1        0.0000
@<TRIPOS>BOND
     1     1     7    1
     2     1     9    1
     3     1    41    1
     4     2    12    1
     5     2    14    1
     6     2    35    1
     7     3    17    1
     8     3    19    1
     9     3    24    1
    10     4     5   ar
    11     4     8   ar
    12     4    22    1
    13     5     6   ar
    14     5    53    1
    15     6     7   ar
    16     6    59    1
    17     7     8   ar
    18     8    52    1
    19     9    10   ar
    20     9    13   ar
    21    10    11   ar
    22    10    54    1
    23    11    12   ar
    24    11    55    1
    25    12    13   ar
    26    13    52    1
    27    14    15   ar
    28    14    18   ar
    29    15    16   ar
    30    15    56    1
    31    16    17   ar
    32    16    57    1
    33    17    18   ar
    34    18    52    1
    35    19    20   ar
    36    19    23   ar
    37    20    21   ar
    38    20    58    1
    39    21    22   ar
    40    21    60    1
    41    22    23   ar
    42    23    52    1
    43    24    25   ar
    44    24    29   ar
    45    25    26   ar
    46    25    30    1
    47    26    27   ar
    48    26    31    1
    49    27    28   ar
    50    27    32    1
    51    28    29   ar
    52    28    33    1
    53    29    34    1
    54    35    36   ar
    55    35    40   ar
    56    36    37   ar
    57    36    73    1
    58    37    38   ar
    59    37    77    1
    60    38    39   ar
    61    38    74    1
    62    39    40   ar
    63    39    72    1
    64    40    75    1
    65    41    42   ar
    66    41    46   ar
    67    42    43   ar
    68    42    47    1
    69    43    44   ar
    70    43    48    1
    71    44    45   ar
    72    44    49    1
    73    45    46   ar
    74    45    50    1
    75    46    51    1
    76    52    66    1
    77    61    62    1
    78    61    66    1
    79    61    68    1
    80    62    63    2
    81    62    69    1
    82    63    64    1
    83    63    67    1
    84    64    65    2
    85    64    70    1
    86    65    66    1
    87    65    71    1
    88    75    76    1
