@<TRIPOS>MOLECULE
F10Ga_2_OH_5_Cl_TD
 77 88 0 0 0
SMALL
GASTEIGER

@<TRIPOS>ATOM
      1 C          -3.3908   -0.8862   -0.6003 C.3     1  UNL1        0.0000
      2 C           0.0200    2.6222   -0.0062 C.3     1  UNL1        0.0000
      3 C           3.3330   -0.9955   -0.4653 C.3     1  UNL1        0.0000
      4 C          -0.7743   -3.3000   -0.9921 C.ar    1  UNL1        0.0000
      5 C          -1.8713   -4.1856   -1.2091 C.ar    1  UNL1        0.0000
      6 C          -3.0364   -3.4364   -1.0826 C.ar    1  UNL1        0.0000
      7 C          -2.6537   -2.0799   -0.7984 C.ar    1  UNL1        0.0000
      8 N          -1.2924   -2.0557   -0.7465 N.ar    1  UNL1        0.0000
      9 C          -2.8033    0.3877   -0.4141 C.ar    1  UNL1        0.0000
     10 C          -3.4803    1.6559   -0.3357 C.ar    1  UNL1        0.0000
     11 C          -2.5337    2.6387   -0.1814 C.ar    1  UNL1        0.0000
     12 C          -1.2434    2.0059   -0.1491 C.ar    1  UNL1        0.0000
     13 N          -1.4421    0.6468   -0.2934 N.ar    1  UNL1        0.0000
     14 C           1.2680    1.9621   -0.0695 C.ar    1  UNL1        0.0000
     15 C           2.5811    2.5371    0.0648 C.ar    1  UNL1        0.0000
     16 C           3.4984    1.5236   -0.0629 C.ar    1  UNL1        0.0000
     17 C           2.7830    0.2939   -0.2821 C.ar    1  UNL1        0.0000
     18 N           1.4267    0.6040   -0.2701 N.ar    1  UNL1        0.0000
     19 C           2.5640   -2.1649   -0.6897 C.ar    1  UNL1        0.0000
     20 C           2.9157   -3.5225   -1.0034 C.ar    1  UNL1        0.0000
     21 C           1.7327   -4.2365   -1.1699 C.ar    1  UNL1        0.0000
     22 C           0.6560   -3.3265   -0.9543 C.ar    1  UNL1        0.0000
     23 N           1.2038   -2.1065   -0.6548 N.ar    1  UNL1        0.0000
     24 C           4.8069   -1.1539   -0.3932 C.ar    1  UNL1        0.0000
     25 C           5.3901   -1.9195    0.6221 C.ar    1  UNL1        0.0000
     26 C           6.7646   -2.1078    0.7125 C.ar    1  UNL1        0.0000
     27 C           7.6009   -1.5134   -0.2278 C.ar    1  UNL1        0.0000
     28 C           7.0549   -0.7406   -1.2478 C.ar    1  UNL1        0.0000
     29 C           5.6753   -0.5756   -1.3238 C.ar    1  UNL1        0.0000
     30 F           4.6166   -2.4869    1.5646 F       1  UNL1        0.0000
     31 F           7.2894   -2.8418    1.7030 F       1  UNL1        0.0000
     32 F           8.9248   -1.6821   -0.1490 F       1  UNL1        0.0000
     33 F           7.8586   -0.1728   -2.1562 F       1  UNL1        0.0000
     34 F           5.1876    0.1624   -2.3307 F       1  UNL1        0.0000
     35 C           0.0380    4.0991    0.2040 C.ar    1  UNL1        0.0000
     36 C           0.5504    4.9490   -0.7827 C.ar    1  UNL1        0.0000
     37 C           0.5770    6.3277   -0.5871 C.ar    1  UNL1        0.0000
     38 C           0.0882    6.8944    0.5860 C.ar    1  UNL1        0.0000
     39 C          -0.4245    6.0577    1.5754 C.ar    1  UNL1        0.0000
     40 C          -0.4470    4.6711    1.3970 C.ar    1  UNL1        0.0000
     41 C          -4.8710   -0.9767   -0.5427 C.ar    1  UNL1        0.0000
     42 C          -5.5637   -0.6490    0.6285 C.ar    1  UNL1        0.0000
     43 C          -6.9479   -0.7357    0.7219 C.ar    1  UNL1        0.0000
     44 C          -7.6838   -1.1744   -0.3748 C.ar    1  UNL1        0.0000
     45 C          -7.0272   -1.5177   -1.5522 C.ar    1  UNL1        0.0000
     46 C          -5.6414   -1.4123   -1.6253 C.ar    1  UNL1        0.0000
     47 F          -4.8900   -0.2449    1.7203 F       1  UNL1        0.0000
     48 F          -7.5750   -0.4152    1.8619 F       1  UNL1        0.0000
     49 F          -9.0152   -1.2678   -0.2954 F       1  UNL1        0.0000
     50 F          -7.7324   -1.9361   -2.6110 F       1  UNL1        0.0000
     51 F          -5.0518   -1.7395   -2.7840 F       1  UNL1        0.0000
     52 GA         -0.0313   -0.6753   -0.1689 Ga      1  UNL1        0.0000
     53 H          -1.8043   -5.2415   -1.4370 H       1  UNL1        0.0000
     54 H          -4.5492    1.7953   -0.4219 H       1  UNL1        0.0000
     55 H          -2.7041    3.7038   -0.1137 H       1  UNL1        0.0000
     56 H           2.7883    3.5845    0.2308 H       1  UNL1        0.0000
     57 H           4.5743    1.6181   -0.0139 H       1  UNL1        0.0000
     58 H           3.9211   -3.9056   -1.1185 H       1  UNL1        0.0000
     59 H          -4.0481   -3.8002   -1.2000 H       1  UNL1        0.0000
     60 H           1.6416   -5.2826   -1.4321 H       1  UNL1        0.0000
     61 C          -1.2043   -0.8164    2.6406 C.3     1  UNL1        0.0000
     62 C          -1.2688   -1.0373    4.0110 C.2     1  UNL1        0.0000
     63 C          -0.1269   -1.4854    4.6743 C.2     1  UNL1        0.0000
     64 C           1.0411   -1.7017    3.9431 C.2     1  UNL1        0.0000
     65 C           1.0288   -1.4623    2.5745 C.2     1  UNL1        0.0000
     66 N          -0.0748   -1.0257    1.9409 N.pl3   1  UNL1        0.0000
     67 H          -0.1469   -1.6659    5.7447 H       1  UNL1        0.0000
     68 H          -2.0638   -0.4679    2.0788 H       1  UNL1        0.0000
     69 H          -2.1983   -0.8596    4.5406 H       1  UNL1        0.0000
     70 H           1.9502   -2.0525    4.4189 H       1  UNL1        0.0000
     71 H           1.9093   -1.6226    1.9620 H       1  UNL1        0.0000
     72 H          -0.8024    6.4893    2.4998 H       1  UNL1        0.0000
     73 H           0.9238    4.5206   -1.7059 H       1  UNL1        0.0000
     74 H           0.1066    7.9688    0.7306 H       1  UNL1        0.0000
     75 O          -0.9206    3.8286    2.3586 O.3     1  UNL1        0.0000
     76 H          -1.2229    4.3558    3.1164 H       1  UNL1        0.0000
     77 CL          1.2325    7.3691   -1.8501 Cl      1  UNL1        0.0000
@<TRIPOS>BOND
     1     1     7    1
     2     1     9    1
     3     1    41    1
     4     2    12    1
     5     2    14    1
     6     2    35    1
     7     3    17    1
     8     3    19    1
     9     3    24    1
    10     4     5   ar
    11     4     8   ar
    12     4    22    1
    13     5     6   ar
    14     5    53    1
    15     6     7   ar
    16     6    59    1
    17     7     8   ar
    18     8    52    1
    19     9    10   ar
    20     9    13   ar
    21    10    11   ar
    22    10    54    1
    23    11    12   ar
    24    11    55    1
    25    12    13   ar
    26    13    52    1
    27    14    15   ar
    28    14    18   ar
    29    15    16   ar
    30    15    56    1
    31    16    17   ar
    32    16    57    1
    33    17    18   ar
    34    18    52    1
    35    19    20   ar
    36    19    23   ar
    37    20    21   ar
    38    20    58    1
    39    21    22   ar
    40    21    60    1
    41    22    23   ar
    42    23    52    1
    43    24    25   ar
    44    24    29   ar
    45    25    26   ar
    46    25    30    1
    47    26    27   ar
    48    26    31    1
    49    27    28   ar
    50    27    32    1
    51    28    29   ar
    52    28    33    1
    53    29    34    1
    54    35    36   ar
    55    35    40   ar
    56    36    37   ar
    57    36    73    1
    58    37    38   ar
    59    37    77    1
    60    38    39   ar
    61    38    74    1
    62    39    40   ar
    63    39    72    1
    64    40    75    1
    65    41    42   ar
    66    41    46   ar
    67    42    43   ar
    68    42    47    1
    69    43    44   ar
    70    43    48    1
    71    44    45   ar
    72    44    49    1
    73    45    46   ar
    74    45    50    1
    75    46    51    1
    76    52    66    1
    77    61    62    1
    78    61    66    1
    79    61    68    1
    80    62    63    2
    81    62    69    1
    82    63    64    1
    83    63    67    1
    84    64    65    2
    85    64    70    1
    86    65    66    1
    87    65    71    1
    88    75    76    1
