@<TRIPOS>MOLECULE
F10Ga_2_OH_5_F_TD
 77 88 0 0 0
SMALL
GASTEIGER

@<TRIPOS>ATOM
      1 C          -3.3530   -0.8408   -0.5607 C.3     1  UNL1        0.0000
      2 C          -0.0059    2.7584   -0.2007 C.3     1  UNL1        0.0000
      3 C           3.3722   -0.8192   -0.4681 C.3     1  UNL1        0.0000
      4 C          -0.6942   -3.2258   -0.8260 C.ar    1  UNL1        0.0000
      5 C          -1.7752   -4.1398   -1.0007 C.ar    1  UNL1        0.0000
      6 C          -2.9534   -3.4051   -0.9156 C.ar    1  UNL1        0.0000
      7 C          -2.5946   -2.0298   -0.6984 C.ar    1  UNL1        0.0000
      8 N          -1.2341   -1.9798   -0.6439 N.ar    1  UNL1        0.0000
      9 C          -2.7891    0.4514   -0.4392 C.ar    1  UNL1        0.0000
     10 C          -3.4904    1.7086   -0.4132 C.ar    1  UNL1        0.0000
     11 C          -2.5618    2.7157   -0.3181 C.ar    1  UNL1        0.0000
     12 C          -1.2586    2.1101   -0.2755 C.ar    1  UNL1        0.0000
     13 N          -1.4323    0.7416   -0.3462 N.ar    1  UNL1        0.0000
     14 C           1.2531    2.1186   -0.2461 C.ar    1  UNL1        0.0000
     15 C           2.5557    2.7282   -0.1862 C.ar    1  UNL1        0.0000
     16 C           3.4919    1.7266   -0.2585 C.ar    1  UNL1        0.0000
     17 C           2.7992    0.4695   -0.3680 C.ar    1  UNL1        0.0000
     18 N           1.4369    0.7523   -0.3485 N.ar    1  UNL1        0.0000
     19 C           2.6235   -2.0149   -0.6078 C.ar    1  UNL1        0.0000
     20 C           2.9991   -3.3813   -0.8471 C.ar    1  UNL1        0.0000
     21 C           1.8288   -4.1255   -0.9643 C.ar    1  UNL1        0.0000
     22 C           0.7365   -3.2250   -0.7912 C.ar    1  UNL1        0.0000
     23 N           1.2630   -1.9802   -0.5649 N.ar    1  UNL1        0.0000
     24 C           4.8491   -0.9490   -0.3986 C.ar    1  UNL1        0.0000
     25 C           5.4494   -1.6435    0.6573 C.ar    1  UNL1        0.0000
     26 C           6.8266   -1.8107    0.7481 C.ar    1  UNL1        0.0000
     27 C           7.6491   -1.2661   -0.2337 C.ar    1  UNL1        0.0000
     28 C           7.0863   -0.5627   -1.2940 C.ar    1  UNL1        0.0000
     29 C           5.7043   -0.4182   -1.3689 C.ar    1  UNL1        0.0000
     30 F           4.6900   -2.1602    1.6397 F       1  UNL1        0.0000
     31 F           7.3667   -2.4767    1.7776 F       1  UNL1        0.0000
     32 F           8.9754   -1.4154   -0.1558 F       1  UNL1        0.0000
     33 F           7.8762   -0.0430   -2.2424 F       1  UNL1        0.0000
     34 F           5.2016    0.2526   -2.4150 F       1  UNL1        0.0000
     35 C          -0.0111    4.2468   -0.0880 C.ar    1  UNL1        0.0000
     36 C           0.4296    5.0412   -1.1529 C.ar    1  UNL1        0.0000
     37 C           0.4343    6.4246   -1.0357 C.ar    1  UNL1        0.0000
     38 C           0.0067    7.0613    0.1200 C.ar    1  UNL1        0.0000
     39 C          -0.4341    6.2787    1.1869 C.ar    1  UNL1        0.0000
     40 C          -0.4441    4.8838    1.0920 C.ar    1  UNL1        0.0000
     41 C          -4.8319   -0.9550   -0.5076 C.ar    1  UNL1        0.0000
     42 C          -5.5381   -0.5937    0.6452 C.ar    1  UNL1        0.0000
     43 C          -6.9216   -0.6984    0.7319 C.ar    1  UNL1        0.0000
     44 C          -7.6416   -1.1915   -0.3523 C.ar    1  UNL1        0.0000
     45 C          -6.9708   -1.5700   -1.5108 C.ar    1  UNL1        0.0000
     46 C          -5.5863   -1.4459   -1.5776 C.ar    1  UNL1        0.0000
     47 F          -4.8779   -0.1375    1.7246 F       1  UNL1        0.0000
     48 F          -7.5631   -0.3436    1.8535 F       1  UNL1        0.0000
     49 F          -8.9720   -1.3024   -0.2791 F       1  UNL1        0.0000
     50 F          -7.6617   -2.0395   -2.5575 F       1  UNL1        0.0000
     51 F          -4.9819   -1.8100   -2.7176 F       1  UNL1        0.0000
     52 GA          0.0042   -0.5448   -0.1570 Ga      1  UNL1        0.0000
     53 H          -1.6895   -5.2045   -1.1751 H       1  UNL1        0.0000
     54 H          -4.5628    1.8228   -0.4908 H       1  UNL1        0.0000
     55 H          -2.7518    3.7795   -0.2996 H       1  UNL1        0.0000
     56 H           2.7427    3.7894   -0.1055 H       1  UNL1        0.0000
     57 H           4.5661    1.8464   -0.2414 H       1  UNL1        0.0000
     58 H           4.0112   -3.7507   -0.9481 H       1  UNL1        0.0000
     59 H          -3.9589   -3.7909   -1.0171 H       1  UNL1        0.0000
     60 H           1.7559   -5.1860   -1.1677 H       1  UNL1        0.0000
     61 C          -1.1779   -0.6237    2.6485 C.3     1  UNL1        0.0000
     62 C          -1.2429   -0.7875    4.0268 C.2     1  UNL1        0.0000
     63 C          -0.0780   -1.1141    4.7206 C.2     1  UNL1        0.0000
     64 C           1.1129   -1.2691    4.0113 C.2     1  UNL1        0.0000
     65 C           1.0995   -1.0935    2.6330 C.2     1  UNL1        0.0000
     66 N          -0.0269   -0.7757    1.9695 N.pl3   1  UNL1        0.0000
     67 H          -0.0980   -1.2479    5.7979 H       1  UNL1        0.0000
     68 H          -2.0551   -0.3692    2.0639 H       1  UNL1        0.0000
     69 H          -2.1902   -0.6598    4.5389 H       1  UNL1        0.0000
     70 H           2.0408   -1.5236    4.5116 H       1  UNL1        0.0000
     71 H           1.9980   -1.2116    2.0371 H       1  UNL1        0.0000
     72 H          -0.7650    6.7588    2.1050 H       1  UNL1        0.0000
     73 H           0.7647    4.5775   -2.0743 H       1  UNL1        0.0000
     74 H           0.0205    8.1441    0.1823 H       1  UNL1        0.0000
     75 O          -0.8569    4.0924    2.1267 O.3     1  UNL1        0.0000
     76 H          -1.1308    4.6616    2.8642 H       1  UNL1        0.0000
     77 F           0.8643    7.1717   -2.0819 F       1  UNL1        0.0000
@<TRIPOS>BOND
     1     1     7    1
     2     1     9    1
     3     1    41    1
     4     2    12    1
     5     2    14    1
     6     2    35    1
     7     3    17    1
     8     3    19    1
     9     3    24    1
    10     4     5   ar
    11     4     8   ar
    12     4    22    1
    13     5     6   ar
    14     5    53    1
    15     6     7   ar
    16     6    59    1
    17     7     8   ar
    18     8    52    1
    19     9    10   ar
    20     9    13   ar
    21    10    11   ar
    22    10    54    1
    23    11    12   ar
    24    11    55    1
    25    12    13   ar
    26    13    52    1
    27    14    15   ar
    28    14    18   ar
    29    15    16   ar
    30    15    56    1
    31    16    17   ar
    32    16    57    1
    33    17    18   ar
    34    18    52    1
    35    19    20   ar
    36    19    23   ar
    37    20    21   ar
    38    20    58    1
    39    21    22   ar
    40    21    60    1
    41    22    23   ar
    42    23    52    1
    43    24    25   ar
    44    24    29   ar
    45    25    26   ar
    46    25    30    1
    47    26    27   ar
    48    26    31    1
    49    27    28   ar
    50    27    32    1
    51    28    29   ar
    52    28    33    1
    53    29    34    1
    54    35    36   ar
    55    35    40   ar
    56    36    37   ar
    57    36    73    1
    58    37    38   ar
    59    37    77    1
    60    38    39   ar
    61    38    74    1
    62    39    40   ar
    63    39    72    1
    64    40    75    1
    65    41    42   ar
    66    41    46   ar
    67    42    43   ar
    68    42    47    1
    69    43    44   ar
    70    43    48    1
    71    44    45   ar
    72    44    49    1
    73    45    46   ar
    74    45    50    1
    75    46    51    1
    76    52    66    1
    77    61    62    1
    78    61    66    1
    79    61    68    1
    80    62    63    2
    81    62    69    1
    82    63    64    1
    83    63    67    1
    84    64    65    2
    85    64    70    1
    86    65    66    1
    87    65    71    1
    88    75    76    1
