@<TRIPOS>MOLECULE
F10Ga_2_OH_5_I_TD
 77 88 0 0 0
SMALL
GASTEIGER

@<TRIPOS>ATOM
      1 C          -3.5972   -1.0275   -0.6072 C.3     1  UNL1        0.0000
      2 C           0.1437    1.9948    0.4692 C.3     1  UNL1        0.0000
      3 C           3.0778   -1.8506   -0.4604 C.3     1  UNL1        0.0000
      4 C          -1.2354   -3.6364   -1.2753 C.ar    1  UNL1        0.0000
      5 C          -2.4109   -4.3594   -1.6363 C.ar    1  UNL1        0.0000
      6 C          -3.4948   -3.5130   -1.4285 C.ar    1  UNL1        0.0000
      7 C          -2.9827   -2.2584   -0.9472 C.ar    1  UNL1        0.0000
      8 N          -1.6290   -2.3907   -0.8629 N.ar    1  UNL1        0.0000
      9 C          -2.8861    0.1399   -0.2401 C.ar    1  UNL1        0.0000
     10 C          -3.4304    1.4495    0.0090 C.ar    1  UNL1        0.0000
     11 C          -2.3915    2.2967    0.3075 C.ar    1  UNL1        0.0000
     12 C          -1.1743    1.5340    0.2566 C.ar    1  UNL1        0.0000
     13 N          -1.5086    0.2347   -0.0711 N.ar    1  UNL1        0.0000
     14 C           1.3181    1.2275    0.3070 C.ar    1  UNL1        0.0000
     15 C           2.6817    1.6535    0.4838 C.ar    1  UNL1        0.0000
     16 C           3.4940    0.5767    0.2277 C.ar    1  UNL1        0.0000
     17 C           2.6595   -0.5447   -0.1173 C.ar    1  UNL1        0.0000
     18 N           1.3404   -0.1078   -0.0483 N.ar    1  UNL1        0.0000
     19 C           2.1955   -2.8993   -0.8225 C.ar    1  UNL1        0.0000
     20 C           2.4129   -4.2253   -1.3314 C.ar    1  UNL1        0.0000
     21 C           1.1661   -4.7874   -1.5888 C.ar    1  UNL1        0.0000
     22 C           0.1835   -3.8170   -1.2326 C.ar    1  UNL1        0.0000
     23 N           0.8476   -2.7135   -0.7637 N.ar    1  UNL1        0.0000
     24 C           4.5279   -2.1653   -0.4335 C.ar    1  UNL1        0.0000
     25 C           5.0309   -3.1132    0.4641 C.ar    1  UNL1        0.0000
     26 C           6.3771   -3.4584    0.5027 C.ar    1  UNL1        0.0000
     27 C           7.2679   -2.8403   -0.3697 C.ar    1  UNL1        0.0000
     28 C           6.8028   -1.8881   -1.2714 C.ar    1  UNL1        0.0000
     29 C           5.4490   -1.5674   -1.2987 C.ar    1  UNL1        0.0000
     30 F           4.2059   -3.7130    1.3402 F       1  UNL1        0.0000
     31 F           6.8229   -4.3682    1.3794 F       1  UNL1        0.0000
     32 F           8.5660   -3.1586   -0.3400 F       1  UNL1        0.0000
     33 F           7.6582   -1.2968   -2.1153 F       1  UNL1        0.0000
     34 F           5.0398   -0.6577   -2.1942 F       1  UNL1        0.0000
     35 C           0.3103    3.4222    0.8721 C.ar    1  UNL1        0.0000
     36 C           0.8309    4.3584   -0.0298 C.ar    1  UNL1        0.0000
     37 C           0.9944    5.6886    0.3481 C.ar    1  UNL1        0.0000
     38 C           0.6420    6.1202    1.6232 C.ar    1  UNL1        0.0000
     39 C           0.1221    5.1958    2.5287 C.ar    1  UNL1        0.0000
     40 C          -0.0421    3.8560    2.1645 C.ar    1  UNL1        0.0000
     41 C          -5.0797   -0.9568   -0.6137 C.ar    1  UNL1        0.0000
     42 C          -5.7921   -0.6998    0.5634 C.ar    1  UNL1        0.0000
     43 C          -7.1803   -0.6325    0.5920 C.ar    1  UNL1        0.0000
     44 C          -7.9017   -0.8430   -0.5792 C.ar    1  UNL1        0.0000
     45 C          -7.2268   -1.1118   -1.7657 C.ar    1  UNL1        0.0000
     46 C          -5.8361   -1.1615   -1.7721 C.ar    1  UNL1        0.0000
     47 F          -5.1354   -0.5189    1.7229 F       1  UNL1        0.0000
     48 F          -7.8269   -0.3848    1.7391 F       1  UNL1        0.0000
     49 F          -9.2376   -0.7880   -0.5632 F       1  UNL1        0.0000
     50 F          -7.9183   -1.3078   -2.8956 F       1  UNL1        0.0000
     51 F          -5.2269   -1.4081   -2.9407 F       1  UNL1        0.0000
     52 GA         -0.2435   -1.2334   -0.1052 Ga      1  UNL1        0.0000
     53 H          -2.4466   -5.3744   -2.0100 H       1  UNL1        0.0000
     54 H          -4.4770    1.7109   -0.0637 H       1  UNL1        0.0000
     55 H          -2.4522    3.3546    0.5208 H       1  UNL1        0.0000
     56 H           2.9902    2.6511    0.7623 H       1  UNL1        0.0000
     57 H           4.5742    0.5604    0.2695 H       1  UNL1        0.0000
     58 H           3.3765   -4.6838   -1.5109 H       1  UNL1        0.0000
     59 H          -4.5341   -3.7452   -1.6177 H       1  UNL1        0.0000
     60 H           0.9730   -5.7697   -2.0000 H       1  UNL1        0.0000
     61 C          -1.4847   -1.6215    2.6503 C.3     1  UNL1        0.0000
     62 C          -1.5958   -2.0121    3.9792 C.2     1  UNL1        0.0000
     63 C          -0.5075   -2.6344    4.5903 C.2     1  UNL1        0.0000
     64 C           0.6552   -2.8490    3.8502 C.2     1  UNL1        0.0000
     65 C           0.6907   -2.4347    2.5244 C.2     1  UNL1        0.0000
     66 N          -0.3612   -1.8318    1.9415 N.pl3   1  UNL1        0.0000
     67 H          -0.5649   -2.9489    5.6279 H       1  UNL1        0.0000
     68 H          -2.3007   -1.1324    2.1297 H       1  UNL1        0.0000
     69 H          -2.5189   -1.8285    4.5179 H       1  UNL1        0.0000
     70 H           1.5233   -3.3304    4.2865 H       1  UNL1        0.0000
     71 H           1.5677   -2.5844    1.9043 H       1  UNL1        0.0000
     72 H          -0.1514    5.5209    3.5303 H       1  UNL1        0.0000
     73 H           1.0981    4.0259   -1.0262 H       1  UNL1        0.0000
     74 H           0.7664    7.1555    1.9196 H       1  UNL1        0.0000
     75 O          -0.5334    2.9272    3.0323 O.3     1  UNL1        0.0000
     76 H          -0.7402    3.3638    3.8752 H       1  UNL1        0.0000
     77 I           1.7939    7.1005   -1.0685 I       1  UNL1        0.0000
@<TRIPOS>BOND
     1     1     7    1
     2     1     9    1
     3     1    41    1
     4     2    12    1
     5     2    14    1
     6     2    35    1
     7     3    17    1
     8     3    19    1
     9     3    24    1
    10     4     5   ar
    11     4     8   ar
    12     4    22    1
    13     5     6   ar
    14     5    53    1
    15     6     7   ar
    16     6    59    1
    17     7     8   ar
    18     8    52    1
    19     9    10   ar
    20     9    13   ar
    21    10    11   ar
    22    10    54    1
    23    11    12   ar
    24    11    55    1
    25    12    13   ar
    26    13    52    1
    27    14    15   ar
    28    14    18   ar
    29    15    16   ar
    30    15    56    1
    31    16    17   ar
    32    16    57    1
    33    17    18   ar
    34    18    52    1
    35    19    20   ar
    36    19    23   ar
    37    20    21   ar
    38    20    58    1
    39    21    22   ar
    40    21    60    1
    41    22    23   ar
    42    23    52    1
    43    24    25   ar
    44    24    29   ar
    45    25    26   ar
    46    25    30    1
    47    26    27   ar
    48    26    31    1
    49    27    28   ar
    50    27    32    1
    51    28    29   ar
    52    28    33    1
    53    29    34    1
    54    35    36   ar
    55    35    40   ar
    56    36    37   ar
    57    36    73    1
    58    37    38   ar
    59    37    77    1
    60    38    39   ar
    61    38    74    1
    62    39    40   ar
    63    39    72    1
    64    40    75    1
    65    41    42   ar
    66    41    46   ar
    67    42    43   ar
    68    42    47    1
    69    43    44   ar
    70    43    48    1
    71    44    45   ar
    72    44    49    1
    73    45    46   ar
    74    45    50    1
    75    46    51    1
    76    52    66    1
    77    61    62    1
    78    61    66    1
    79    61    68    1
    80    62    63    2
    81    62    69    1
    82    63    64    1
    83    63    67    1
    84    64    65    2
    85    64    70    1
    86    65    66    1
    87    65    71    1
    88    75    76    1
