@<TRIPOS>MOLECULE
F10Ga_3_4_5_trimethoxyphenyl_TD
 88 99 0 0 0
SMALL
GASTEIGER

@<TRIPOS>ATOM
      1 C          -3.3372   -1.5222   -0.5473 C.3     1  UNL1        0.0000
      2 C          -0.0294    2.1325   -0.3102 C.3     1  UNL1        0.0000
      3 C           3.3856   -1.4274   -0.4118 C.3     1  UNL1        0.0000
      4 C          -0.6532   -3.8900   -0.6617 C.ar    1  UNL1        0.0000
      5 C          -1.7232   -4.8213   -0.8124 C.ar    1  UNL1        0.0000
      6 C          -2.9088   -4.0956   -0.7751 C.ar    1  UNL1        0.0000
      7 C          -2.5658   -2.7083   -0.6124 C.ar    1  UNL1        0.0000
      8 N          -1.2070   -2.6426   -0.5393 N.ar    1  UNL1        0.0000
      9 C          -2.7869   -0.2195   -0.4792 C.ar    1  UNL1        0.0000
     10 C          -3.5019    1.0277   -0.5299 C.ar    1  UNL1        0.0000
     11 C          -2.5874    2.0505   -0.4687 C.ar    1  UNL1        0.0000
     12 C          -1.2767    1.4650   -0.3687 C.ar    1  UNL1        0.0000
     13 N          -1.4353    0.0913   -0.3750 N.ar    1  UNL1        0.0000
     14 C           1.2368    1.4995   -0.3262 C.ar    1  UNL1        0.0000
     15 C           2.5350    2.1189   -0.2634 C.ar    1  UNL1        0.0000
     16 C           3.4792    1.1230   -0.2952 C.ar    1  UNL1        0.0000
     17 C           2.7978   -0.1413   -0.3718 C.ar    1  UNL1        0.0000
     18 N           1.4332    0.1309   -0.3808 N.ar    1  UNL1        0.0000
     19 C           2.6500   -2.6359   -0.4926 C.ar    1  UNL1        0.0000
     20 C           3.0398   -4.0075   -0.6748 C.ar    1  UNL1        0.0000
     21 C           1.8777   -4.7684   -0.7567 C.ar    1  UNL1        0.0000
     22 C           0.7761   -3.8730   -0.6182 C.ar    1  UNL1        0.0000
     23 N           1.2895   -2.6141   -0.4440 N.ar    1  UNL1        0.0000
     24 C           4.8638   -1.5375   -0.3450 C.ar    1  UNL1        0.0000
     25 C           5.4794   -2.1937    0.7268 C.ar    1  UNL1        0.0000
     26 C           6.8589   -2.3442    0.8120 C.ar    1  UNL1        0.0000
     27 C           7.6689   -1.8210   -0.1914 C.ar    1  UNL1        0.0000
     28 C           7.0911   -1.1555   -1.2679 C.ar    1  UNL1        0.0000
     29 C           5.7073   -1.0270   -1.3367 C.ar    1  UNL1        0.0000
     30 F           4.7334   -2.6885    1.7302 F       1  UNL1        0.0000
     31 F           7.4129   -2.9736    1.8571 F       1  UNL1        0.0000
     32 F           8.9972   -1.9547   -0.1188 F       1  UNL1        0.0000
     33 F           7.8687   -0.6565   -2.2376 F       1  UNL1        0.0000
     34 F           5.1911   -0.3937   -2.3994 F       1  UNL1        0.0000
     35 C          -0.0586    3.6218   -0.2297 C.ar    1  UNL1        0.0000
     36 C           0.5544    4.4108   -1.2147 C.ar    1  UNL1        0.0000
     37 C           0.5223    5.7996   -1.1222 C.ar    1  UNL1        0.0000
     38 C          -0.1305    6.4356   -0.0507 C.ar    1  UNL1        0.0000
     39 C          -0.7297    5.6494    0.9477 C.ar    1  UNL1        0.0000
     40 C          -0.6830    4.2545    0.8506 C.ar    1  UNL1        0.0000
     41 C          -4.8158   -1.6470   -0.5250 C.ar    1  UNL1        0.0000
     42 C          -5.5563   -1.2248    0.5849 C.ar    1  UNL1        0.0000
     43 C          -6.9409   -1.3366    0.6399 C.ar    1  UNL1        0.0000
     44 C          -7.6267   -1.9007   -0.4318 C.ar    1  UNL1        0.0000
     45 C          -6.9213   -2.3410   -1.5471 C.ar    1  UNL1        0.0000
     46 C          -5.5366   -2.2074   -1.5842 C.ar    1  UNL1        0.0000
     47 F          -4.9293   -0.7007    1.6528 F       1  UNL1        0.0000
     48 F          -7.6158   -0.9218    1.7204 F       1  UNL1        0.0000
     49 F          -8.9578   -2.0196   -0.3883 F       1  UNL1        0.0000
     50 F          -7.5799   -2.8771   -2.5826 F       1  UNL1        0.0000
     51 F          -4.8986   -2.6311   -2.6846 F       1  UNL1        0.0000
     52 GA          0.0138   -1.1707   -0.1239 Ga      1  UNL1        0.0000
     53 H          -1.6248   -5.8916   -0.9396 H       1  UNL1        0.0000
     54 H          -4.5735    1.1255   -0.6367 H       1  UNL1        0.0000
     55 H          -2.7923    3.1102   -0.5126 H       1  UNL1        0.0000
     56 H           2.7152    3.1821   -0.2057 H       1  UNL1        0.0000
     57 H           4.5521    1.2518   -0.2655 H       1  UNL1        0.0000
     58 H           4.0553   -4.3703   -0.7633 H       1  UNL1        0.0000
     59 H          -3.9093   -4.4947   -0.8745 H       1  UNL1        0.0000
     60 H           1.8154   -5.8371   -0.9152 H       1  UNL1        0.0000
     61 C          -1.1639   -1.0499    2.6848 C.3     1  UNL1        0.0000
     62 C          -1.2278   -1.1306    4.0705 C.2     1  UNL1        0.0000
     63 C          -0.0695   -1.4487    4.7794 C.2     1  UNL1        0.0000
     64 C           1.1137   -1.6791    4.0776 C.2     1  UNL1        0.0000
     65 C           1.0997   -1.5835    2.6914 C.2     1  UNL1        0.0000
     66 N          -0.0199   -1.2731    2.0133 N.pl3   1  UNL1        0.0000
     67 H          -0.0890   -1.5178    5.8627 H       1  UNL1        0.0000
     68 H          -2.0357   -0.8071    2.0873 H       1  UNL1        0.0000
     69 H          -2.1688   -0.9466    4.5771 H       1  UNL1        0.0000
     70 H           2.0360   -1.9298    4.5899 H       1  UNL1        0.0000
     71 H           1.9917   -1.7594    2.1001 H       1  UNL1        0.0000
     72 O          -0.1883    7.8104    0.0085 O.3     1  UNL1        0.0000
     73 C          -1.1760    8.3777   -0.8611 C.3     1  UNL1        0.0000
     74 H          -0.9536    8.1478   -1.9085 H       1  UNL1        0.0000
     75 H          -2.1777    8.0084   -0.6081 H       1  UNL1        0.0000
     76 H          -1.1377    9.4588   -0.7058 H       1  UNL1        0.0000
     77 H          -1.1453    3.6729    1.6406 H       1  UNL1        0.0000
     78 H           1.0426    3.9563   -2.0693 H       1  UNL1        0.0000
     79 O           1.0749    6.5429   -2.1376 O.3     1  UNL1        0.0000
     80 O          -1.4125    6.1627    2.0123 O.3     1  UNL1        0.0000
     81 C           2.2267    7.3065   -1.7630 C.3     1  UNL1        0.0000
     82 C          -0.8825    7.3049    2.6915 C.3     1  UNL1        0.0000
     83 H           2.5534    7.8288   -2.6654 H       1  UNL1        0.0000
     84 H           1.9877    8.0338   -0.9814 H       1  UNL1        0.0000
     85 H           3.0324    6.6455   -1.4167 H       1  UNL1        0.0000
     86 H           0.2112    7.2636    2.7438 H       1  UNL1        0.0000
     87 H          -1.1810    8.2402    2.2114 H       1  UNL1        0.0000
     88 H          -1.2934    7.2639    3.7043 H       1  UNL1        0.0000
@<TRIPOS>BOND
     1     1     7    1
     2     1     9    1
     3     1    41    1
     4     2    12    1
     5     2    14    1
     6     2    35    1
     7     3    17    1
     8     3    19    1
     9     3    24    1
    10     4     5   ar
    11     4     8   ar
    12     4    22    1
    13     5     6   ar
    14     5    53    1
    15     6     7   ar
    16     6    59    1
    17     7     8   ar
    18     8    52    1
    19     9    10   ar
    20     9    13   ar
    21    10    11   ar
    22    10    54    1
    23    11    12   ar
    24    11    55    1
    25    12    13   ar
    26    13    52    1
    27    14    15   ar
    28    14    18   ar
    29    15    16   ar
    30    15    56    1
    31    16    17   ar
    32    16    57    1
    33    17    18   ar
    34    18    52    1
    35    19    20   ar
    36    19    23   ar
    37    20    21   ar
    38    20    58    1
    39    21    22   ar
    40    21    60    1
    41    22    23   ar
    42    23    52    1
    43    24    25   ar
    44    24    29   ar
    45    25    26   ar
    46    25    30    1
    47    26    27   ar
    48    26    31    1
    49    27    28   ar
    50    27    32    1
    51    28    29   ar
    52    28    33    1
    53    29    34    1
    54    35    36   ar
    55    35    40   ar
    56    36    37   ar
    57    36    78    1
    58    37    38   ar
    59    37    79    1
    60    38    39   ar
    61    38    72    1
    62    39    40   ar
    63    39    80    1
    64    40    77    1
    65    41    42   ar
    66    41    46   ar
    67    42    43   ar
    68    42    47    1
    69    43    44   ar
    70    43    48    1
    71    44    45   ar
    72    44    49    1
    73    45    46   ar
    74    45    50    1
    75    46    51    1
    76    52    66    1
    77    61    62    1
    78    61    66    1
    79    61    68    1
    80    62    63    2
    81    62    69    1
    82    63    64    1
    83    63    67    1
    84    64    65    2
    85    64    70    1
    86    65    66    1
    87    65    71    1
    88    72    73    1
    89    73    74    1
    90    73    75    1
    91    73    76    1
    92    79    81    1
    93    80    82    1
    94    81    83    1
    95    81    84    1
    96    81    85    1
    97    82    86    1
    98    82    87    1
    99    82    88    1
