@<TRIPOS>MOLECULE
F10Ga_3_4_OH_TD
 78 89 0 0 0
SMALL
GASTEIGER

@<TRIPOS>ATOM
      1 C          -3.3823   -0.8808   -0.5397 C.3     1  UNL1        0.0000
      2 C          -0.0000    2.6895   -0.1106 C.3     1  UNL1        0.0000
      3 C           3.3402   -0.9256   -0.4643 C.3     1  UNL1        0.0000
      4 C          -0.7479   -3.2822   -0.8775 C.ar    1  UNL1        0.0000
      5 C          -1.8386   -4.1835   -1.0589 C.ar    1  UNL1        0.0000
      6 C          -3.0093   -3.4410   -0.9475 C.ar    1  UNL1        0.0000
      7 C          -2.6366   -2.0729   -0.7072 C.ar    1  UNL1        0.0000
      8 N          -1.2754   -2.0353   -0.6650 N.ar    1  UNL1        0.0000
      9 C          -2.8050    0.4046   -0.3962 C.ar    1  UNL1        0.0000
     10 C          -3.4957    1.6657   -0.3673 C.ar    1  UNL1        0.0000
     11 C          -2.5599    2.6655   -0.2603 C.ar    1  UNL1        0.0000
     12 C          -1.2602    2.0504   -0.2034 C.ar    1  UNL1        0.0000
     13 N          -1.4468    0.6824   -0.2882 N.ar    1  UNL1        0.0000
     14 C           1.2526    2.0312   -0.1611 C.ar    1  UNL1        0.0000
     15 C           2.5629    2.6168   -0.0499 C.ar    1  UNL1        0.0000
     16 C           3.4866    1.6059   -0.1497 C.ar    1  UNL1        0.0000
     17 C           2.7793    0.3657   -0.3247 C.ar    1  UNL1        0.0000
     18 N           1.4207    0.6664   -0.3152 N.ar    1  UNL1        0.0000
     19 C           2.5813   -2.1084   -0.6433 C.ar    1  UNL1        0.0000
     20 C           2.9430   -3.4742   -0.9084 C.ar    1  UNL1        0.0000
     21 C           1.7656   -4.2036   -1.0413 C.ar    1  UNL1        0.0000
     22 C           0.6820   -3.2950   -0.8531 C.ar    1  UNL1        0.0000
     23 N           1.2212   -2.0597   -0.6052 N.ar    1  UNL1        0.0000
     24 C           4.8155   -1.0694   -0.3904 C.ar    1  UNL1        0.0000
     25 C           5.4061   -1.7973    0.6483 C.ar    1  UNL1        0.0000
     26 C           6.7818   -1.9749    0.7414 C.ar    1  UNL1        0.0000
     27 C           7.6125   -1.4065   -0.2197 C.ar    1  UNL1        0.0000
     28 C           7.0595   -0.6695   -1.2623 C.ar    1  UNL1        0.0000
     29 C           5.6787   -0.5153   -1.3405 C.ar    1  UNL1        0.0000
     30 F           4.6384   -2.3368    1.6119 F       1  UNL1        0.0000
     31 F           7.3129   -2.6733    1.7541 F       1  UNL1        0.0000
     32 F           8.9376   -1.5652   -0.1391 F       1  UNL1        0.0000
     33 F           7.8578   -0.1267   -2.1905 F       1  UNL1        0.0000
     34 F           5.1850    0.1877   -2.3692 F       1  UNL1        0.0000
     35 C           0.0040    4.1742    0.0317 C.ar    1  UNL1        0.0000
     36 C           0.6331    4.9799   -0.9329 C.ar    1  UNL1        0.0000
     37 C           0.6443    6.3641   -0.8062 C.ar    1  UNL1        0.0000
     38 C           0.0131    6.9682    0.2951 C.ar    1  UNL1        0.0000
     39 C          -0.6174    6.1834    1.2535 C.ar    1  UNL1        0.0000
     40 C          -0.6203    4.7922    1.1236 C.ar    1  UNL1        0.0000
     41 C          -4.8618   -0.9801   -0.4804 C.ar    1  UNL1        0.0000
     42 C          -5.5572   -0.6273    0.6817 C.ar    1  UNL1        0.0000
     43 C          -6.9412   -0.7167    0.7755 C.ar    1  UNL1        0.0000
     44 C          -7.6738   -1.1847   -0.3114 C.ar    1  UNL1        0.0000
     45 C          -7.0143   -1.5542   -1.4792 C.ar    1  UNL1        0.0000
     46 C          -5.6288   -1.4458   -1.5529 C.ar    1  UNL1        0.0000
     47 F          -4.8853   -0.1950    1.7639 F       1  UNL1        0.0000
     48 F          -7.5714   -0.3712    1.9065 F       1  UNL1        0.0000
     49 F          -9.0050   -1.2806   -0.2317 F       1  UNL1        0.0000
     50 F          -7.7169   -2.0004   -2.5284 F       1  UNL1        0.0000
     51 F          -5.0362   -1.7996   -2.7022 F       1  UNL1        0.0000
     52 GA         -0.0213   -0.6233   -0.1550 Ga      1  UNL1        0.0000
     53 H          -1.7637   -5.2451   -1.2554 H       1  UNL1        0.0000
     54 H          -4.5661    1.7898   -0.4575 H       1  UNL1        0.0000
     55 H          -2.7438    3.7298   -0.2467 H       1  UNL1        0.0000
     56 H           2.7649    3.6693    0.0840 H       1  UNL1        0.0000
     57 H           4.5619    1.7094   -0.1075 H       1  UNL1        0.0000
     58 H           3.9513   -3.8527   -1.0135 H       1  UNL1        0.0000
     59 H          -4.0189   -3.8164   -1.0460 H       1  UNL1        0.0000
     60 H           1.6820   -5.2596   -1.2632 H       1  UNL1        0.0000
     61 C          -1.1923   -0.7804    2.6533 C.3     1  UNL1        0.0000
     62 C          -1.2549   -0.9795    4.0271 C.2     1  UNL1        0.0000
     63 C          -0.0886   -1.3229    4.7104 C.2     1  UNL1        0.0000
     64 C           1.1009   -1.4601    3.9951 C.2     1  UNL1        0.0000
     65 C           1.0850   -1.2497    2.6215 C.2     1  UNL1        0.0000
     66 N          -0.0423   -0.9142    1.9683 N.pl3   1  UNL1        0.0000
     67 H          -0.1066   -1.4837    5.7840 H       1  UNL1        0.0000
     68 H          -2.0706   -0.5117    2.0766 H       1  UNL1        0.0000
     69 H          -2.2014   -0.8655    4.5439 H       1  UNL1        0.0000
     70 H           2.0296   -1.7273    4.4870 H       1  UNL1        0.0000
     71 H           1.9824   -1.3536    2.0213 H       1  UNL1        0.0000
     72 H          -1.0984    6.6570    2.1068 H       1  UNL1        0.0000
     73 H          -1.1028    4.1837    1.8811 H       1  UNL1        0.0000
     74 O           0.0789    8.3394    0.3220 O.3     1  UNL1        0.0000
     75 H          -0.4001    8.6762    1.0960 H       1  UNL1        0.0000
     76 H           1.1089    4.5328   -1.7990 H       1  UNL1        0.0000
     77 O           1.2549    7.1311   -1.7520 O.3     1  UNL1        0.0000
     78 H           1.1366    8.0622   -1.4945 H       1  UNL1        0.0000
@<TRIPOS>BOND
     1     1     7    1
     2     1     9    1
     3     1    41    1
     4     2    12    1
     5     2    14    1
     6     2    35    1
     7     3    17    1
     8     3    19    1
     9     3    24    1
    10     4     5   ar
    11     4     8   ar
    12     4    22    1
    13     5     6   ar
    14     5    53    1
    15     6     7   ar
    16     6    59    1
    17     7     8   ar
    18     8    52    1
    19     9    10   ar
    20     9    13   ar
    21    10    11   ar
    22    10    54    1
    23    11    12   ar
    24    11    55    1
    25    12    13   ar
    26    13    52    1
    27    14    15   ar
    28    14    18   ar
    29    15    16   ar
    30    15    56    1
    31    16    17   ar
    32    16    57    1
    33    17    18   ar
    34    18    52    1
    35    19    20   ar
    36    19    23   ar
    37    20    21   ar
    38    20    58    1
    39    21    22   ar
    40    21    60    1
    41    22    23   ar
    42    23    52    1
    43    24    25   ar
    44    24    29   ar
    45    25    26   ar
    46    25    30    1
    47    26    27   ar
    48    26    31    1
    49    27    28   ar
    50    27    32    1
    51    28    29   ar
    52    28    33    1
    53    29    34    1
    54    35    36   ar
    55    35    40   ar
    56    36    37   ar
    57    36    76    1
    58    37    38   ar
    59    37    77    1
    60    38    39   ar
    61    38    74    1
    62    39    40   ar
    63    39    72    1
    64    40    73    1
    65    41    42   ar
    66    41    46   ar
    67    42    43   ar
    68    42    47    1
    69    43    44   ar
    70    43    48    1
    71    44    45   ar
    72    44    49    1
    73    45    46   ar
    74    45    50    1
    75    46    51    1
    76    52    66    1
    77    61    62    1
    78    61    66    1
    79    61    68    1
    80    62    63    2
    81    62    69    1
    82    63    64    1
    83    63    67    1
    84    64    65    2
    85    64    70    1
    86    65    66    1
    87    65    71    1
    88    74    75    1
    89    77    78    1
