@<TRIPOS>MOLECULE
F10Ga_3_Br_4_OH_TD
 77 88 0 0 0
SMALL
GASTEIGER

@<TRIPOS>ATOM
      1 C          -3.5558   -0.9669   -0.5607 C.3     1  UNL1        0.0000
      2 C           0.0984    2.2500    0.2454 C.3     1  UNL1        0.0000
      3 C           3.1399   -1.5719   -0.4409 C.3     1  UNL1        0.0000
      4 C          -1.1204   -3.5368   -1.0969 C.ar    1  UNL1        0.0000
      5 C          -2.2772   -4.3160   -1.3988 C.ar    1  UNL1        0.0000
      6 C          -3.3847   -3.4930   -1.2279 C.ar    1  UNL1        0.0000
      7 C          -2.9067   -2.1960   -0.8307 C.ar    1  UNL1        0.0000
      8 N          -1.5489   -2.2802   -0.7566 N.ar    1  UNL1        0.0000
      9 C          -2.8783    0.2451   -0.2841 C.ar    1  UNL1        0.0000
     10 C          -3.4637    1.5512   -0.1440 C.ar    1  UNL1        0.0000
     11 C          -2.4509    2.4556    0.0653 C.ar    1  UNL1        0.0000
     12 C          -1.2082    1.7307    0.0787 C.ar    1  UNL1        0.0000
     13 N          -1.5041    0.3968   -0.1324 N.ar    1  UNL1        0.0000
     14 C           1.2947    1.5014    0.1364 C.ar    1  UNL1        0.0000
     15 C           2.6465    1.9667    0.3054 C.ar    1  UNL1        0.0000
     16 C           3.4871    0.8991    0.1091 C.ar    1  UNL1        0.0000
     17 C           2.6836   -0.2582   -0.1825 C.ar    1  UNL1        0.0000
     18 N           1.3535    0.1489   -0.1465 N.ar    1  UNL1        0.0000
     19 C           2.2895   -2.6673   -0.7304 C.ar    1  UNL1        0.0000
     20 C           2.5436   -4.0233   -1.1341 C.ar    1  UNL1        0.0000
     21 C           1.3131   -4.6377   -1.3440 C.ar    1  UNL1        0.0000
     22 C           0.3034   -3.6692   -1.0640 C.ar    1  UNL1        0.0000
     23 N           0.9372   -2.5143   -0.6856 N.ar    1  UNL1        0.0000
     24 C           4.5984   -1.8410   -0.3868 C.ar    1  UNL1        0.0000
     25 C           5.1256   -2.7034    0.5800 C.ar    1  UNL1        0.0000
     26 C           6.4819   -3.0022    0.6471 C.ar    1  UNL1        0.0000
     27 C           7.3570   -2.4226   -0.2668 C.ar    1  UNL1        0.0000
     28 C           6.8672   -1.5550   -1.2381 C.ar    1  UNL1        0.0000
     29 C           5.5041   -1.2800   -1.2920 C.ar    1  UNL1        0.0000
     30 F           4.3150   -3.2605    1.4971 F       1  UNL1        0.0000
     31 F           6.9526   -3.8290    1.5905 F       1  UNL1        0.0000
     32 F           8.6642   -2.6966   -0.2094 F       1  UNL1        0.0000
     33 F           7.7077   -1.0014   -2.1213 F       1  UNL1        0.0000
     34 F           5.0695   -0.4521   -2.2522 F       1  UNL1        0.0000
     35 C           0.2171    3.7057    0.5412 C.ar    1  UNL1        0.0000
     36 C           0.9036    4.5635   -0.3311 C.ar    1  UNL1        0.0000
     37 C           1.0167    5.9213   -0.0537 C.ar    1  UNL1        0.0000
     38 C           0.4401    6.4732    1.0988 C.ar    1  UNL1        0.0000
     39 C          -0.2503    5.6201    1.9673 C.ar    1  UNL1        0.0000
     40 C          -0.3571    4.2598    1.6943 C.ar    1  UNL1        0.0000
     41 C          -5.0393   -0.9424   -0.5392 C.ar    1  UNL1        0.0000
     42 C          -5.7330   -0.6458    0.6394 C.ar    1  UNL1        0.0000
     43 C          -7.1216   -0.6219    0.6975 C.ar    1  UNL1        0.0000
     44 C          -7.8608   -0.9133   -0.4451 C.ar    1  UNL1        0.0000
     45 C          -7.2036   -1.2208   -1.6323 C.ar    1  UNL1        0.0000
     46 C          -5.8125   -1.2280   -1.6684 C.ar    1  UNL1        0.0000
     47 F          -5.0560   -0.3824    1.7715 F       1  UNL1        0.0000
     48 F          -7.7510   -0.3359    1.8453 F       1  UNL1        0.0000
     49 F          -9.1969   -0.8982   -0.4011 F       1  UNL1        0.0000
     50 F          -7.9128   -1.4936   -2.7349 F       1  UNL1        0.0000
     51 F          -5.2192   -1.5136   -2.8362 F       1  UNL1        0.0000
     52 GA         -0.1913   -1.0292   -0.1085 Ga      1  UNL1        0.0000
     53 H          -2.2849   -5.3523   -1.7107 H       1  UNL1        0.0000
     54 H          -4.5185    1.7710   -0.2347 H       1  UNL1        0.0000
     55 H          -2.5476    3.5262    0.1729 H       1  UNL1        0.0000
     56 H           2.9326    2.9808    0.5434 H       1  UNL1        0.0000
     57 H           4.5668    0.9121    0.1622 H       1  UNL1        0.0000
     58 H           3.5195   -4.4680   -1.2779 H       1  UNL1        0.0000
     59 H          -4.4187   -3.7679   -1.3875 H       1  UNL1        0.0000
     60 H           1.1473   -5.6550   -1.6739 H       1  UNL1        0.0000
     61 C          -1.3775   -1.3005    2.6849 C.3     1  UNL1        0.0000
     62 C          -1.4602   -1.6263    4.0333 C.2     1  UNL1        0.0000
     63 C          -0.3417   -2.1728    4.6626 C.2     1  UNL1        0.0000
     64 C           0.8221   -2.3767    3.9214 C.2     1  UNL1        0.0000
     65 C           0.8288   -2.0285    2.5763 C.2     1  UNL1        0.0000
     66 N          -0.2524   -1.4996    1.9754 N.pl3   1  UNL1        0.0000
     67 H          -0.3772   -2.4376    5.7150 H       1  UNL1        0.0000
     68 H          -2.2185   -0.8752    2.1483 H       1  UNL1        0.0000
     69 H          -2.3854   -1.4544    4.5722 H       1  UNL1        0.0000
     70 H           1.7129   -2.8011    4.3711 H       1  UNL1        0.0000
     71 H           1.7055   -2.1751    1.9552 H       1  UNL1        0.0000
     72 H          -0.6975    6.0314    2.8699 H       1  UNL1        0.0000
     73 H          -0.8870    3.6153    2.3881 H       1  UNL1        0.0000
     74 O           0.5725    7.8045    1.3274 O.3     1  UNL1        0.0000
     75 H           0.1176    8.0263    2.1569 H       1  UNL1        0.0000
     76 H           1.3440    4.1685   -1.2391 H       1  UNL1        0.0000
     77 BR          1.9609    7.0537   -1.2646 Br      1  UNL1        0.0000
@<TRIPOS>BOND
     1     1     7    1
     2     1     9    1
     3     1    41    1
     4     2    12    1
     5     2    14    1
     6     2    35    1
     7     3    17    1
     8     3    19    1
     9     3    24    1
    10     4     5   ar
    11     4     8   ar
    12     4    22    1
    13     5     6   ar
    14     5    53    1
    15     6     7   ar
    16     6    59    1
    17     7     8   ar
    18     8    52    1
    19     9    10   ar
    20     9    13   ar
    21    10    11   ar
    22    10    54    1
    23    11    12   ar
    24    11    55    1
    25    12    13   ar
    26    13    52    1
    27    14    15   ar
    28    14    18   ar
    29    15    16   ar
    30    15    56    1
    31    16    17   ar
    32    16    57    1
    33    17    18   ar
    34    18    52    1
    35    19    20   ar
    36    19    23   ar
    37    20    21   ar
    38    20    58    1
    39    21    22   ar
    40    21    60    1
    41    22    23   ar
    42    23    52    1
    43    24    25   ar
    44    24    29   ar
    45    25    26   ar
    46    25    30    1
    47    26    27   ar
    48    26    31    1
    49    27    28   ar
    50    27    32    1
    51    28    29   ar
    52    28    33    1
    53    29    34    1
    54    35    36   ar
    55    35    40   ar
    56    36    37   ar
    57    36    76    1
    58    37    38   ar
    59    37    77    1
    60    38    39   ar
    61    38    74    1
    62    39    40   ar
    63    39    72    1
    64    40    73    1
    65    41    42   ar
    66    41    46   ar
    67    42    43   ar
    68    42    47    1
    69    43    44   ar
    70    43    48    1
    71    44    45   ar
    72    44    49    1
    73    45    46   ar
    74    45    50    1
    75    46    51    1
    76    52    66    1
    77    61    62    1
    78    61    66    1
    79    61    68    1
    80    62    63    2
    81    62    69    1
    82    63    64    1
    83    63    67    1
    84    64    65    2
    85    64    70    1
    86    65    66    1
    87    65    71    1
    88    74    75    1
