@<TRIPOS>MOLECULE
F10Ga_4_COOH_TD
 79 90 0 0 0
SMALL
GASTEIGER

@<TRIPOS>ATOM
      1 C          -3.3421   -1.1460   -0.5098 C.3     1  UNL1        0.0000
      2 C          -0.0282    2.5053   -0.3211 C.3     1  UNL1        0.0000
      3 C           3.3817   -1.0577   -0.4421 C.3     1  UNL1        0.0000
      4 C          -0.6619   -3.5157   -0.6442 C.ar    1  UNL1        0.0000
      5 C          -1.7340   -4.4466   -0.7840 C.ar    1  UNL1        0.0000
      6 C          -2.9184   -3.7199   -0.7367 C.ar    1  UNL1        0.0000
      7 C          -2.5725   -2.3327   -0.5791 C.ar    1  UNL1        0.0000
      8 N          -1.2130   -2.2679   -0.5184 N.ar    1  UNL1        0.0000
      9 C          -2.7903    0.1562   -0.4511 C.ar    1  UNL1        0.0000
     10 C          -3.5051    1.4031   -0.4995 C.ar    1  UNL1        0.0000
     11 C          -2.5896    2.4258   -0.4515 C.ar    1  UNL1        0.0000
     12 C          -1.2783    1.8396   -0.3609 C.ar    1  UNL1        0.0000
     13 N          -1.4372    0.4668   -0.3608 N.ar    1  UNL1        0.0000
     14 C           1.2385    1.8719   -0.3491 C.ar    1  UNL1        0.0000
     15 C           2.5383    2.4897   -0.2997 C.ar    1  UNL1        0.0000
     16 C           3.4803    1.4919   -0.3348 C.ar    1  UNL1        0.0000
     17 C           2.7961    0.2287   -0.3997 C.ar    1  UNL1        0.0000
     18 N           1.4313    0.5034   -0.3977 N.ar    1  UNL1        0.0000
     19 C           2.6441   -2.2655   -0.5120 C.ar    1  UNL1        0.0000
     20 C           3.0305   -3.6380   -0.6944 C.ar    1  UNL1        0.0000
     21 C           1.8670   -4.3976   -0.7627 C.ar    1  UNL1        0.0000
     22 C           0.7680   -3.5001   -0.6155 C.ar    1  UNL1        0.0000
     23 N           1.2842   -2.2416   -0.4500 N.ar    1  UNL1        0.0000
     24 C           4.8607   -1.1691   -0.3908 C.ar    1  UNL1        0.0000
     25 C           5.4866   -1.8160    0.6803 C.ar    1  UNL1        0.0000
     26 C           6.8668   -1.9676    0.7517 C.ar    1  UNL1        0.0000
     27 C           7.6660   -1.4555   -0.2661 C.ar    1  UNL1        0.0000
     28 C           7.0772   -0.7998   -1.3429 C.ar    1  UNL1        0.0000
     29 C           5.6929   -0.6694   -1.3971 C.ar    1  UNL1        0.0000
     30 F           4.7502   -2.3005    1.6957 F       1  UNL1        0.0000
     31 F           7.4315   -2.5877    1.7963 F       1  UNL1        0.0000
     32 F           8.9946   -1.5905   -0.2073 F       1  UNL1        0.0000
     33 F           7.8445   -0.3114   -2.3257 F       1  UNL1        0.0000
     34 F           5.1649   -0.0449   -2.4593 F       1  UNL1        0.0000
     35 C          -0.0542    3.9923   -0.2462 C.ar    1  UNL1        0.0000
     36 C           0.5609    4.7818   -1.2326 C.ar    1  UNL1        0.0000
     37 C           0.5419    6.1705   -1.1521 C.ar    1  UNL1        0.0000
     38 C          -0.1004    6.8036   -0.0791 C.ar    1  UNL1        0.0000
     39 C          -0.7232    6.0259    0.9064 C.ar    1  UNL1        0.0000
     40 C          -0.6988    4.6396    0.8231 C.ar    1  UNL1        0.0000
     41 C          -4.8206   -1.2695   -0.4719 C.ar    1  UNL1        0.0000
     42 C          -5.5482   -0.8488    0.6469 C.ar    1  UNL1        0.0000
     43 C          -6.9321   -0.9603    0.7171 C.ar    1  UNL1        0.0000
     44 C          -7.6297   -1.5220   -0.3482 C.ar    1  UNL1        0.0000
     45 C          -6.9370   -1.9604   -1.4724 C.ar    1  UNL1        0.0000
     46 C          -5.5528   -1.8274   -1.5244 C.ar    1  UNL1        0.0000
     47 F          -4.9084   -0.3266    1.7084 F       1  UNL1        0.0000
     48 F          -7.5948   -0.5473    1.8055 F       1  UNL1        0.0000
     49 F          -8.9599   -1.6406   -0.2901 F       1  UNL1        0.0000
     50 F          -7.6072   -2.4942   -2.5014 F       1  UNL1        0.0000
     51 F          -4.9261   -2.2494   -2.6320 F       1  UNL1        0.0000
     52 GA          0.0135   -0.7964   -0.1176 Ga      1  UNL1        0.0000
     53 H          -1.6375   -5.5170   -0.9107 H       1  UNL1        0.0000
     54 H          -4.5775    1.5009   -0.5969 H       1  UNL1        0.0000
     55 H          -2.7970    3.4849   -0.5024 H       1  UNL1        0.0000
     56 H           2.7240    3.5522   -0.2440 H       1  UNL1        0.0000
     57 H           4.5536    1.6190   -0.3136 H       1  UNL1        0.0000
     58 H           4.0447   -4.0024   -0.7917 H       1  UNL1        0.0000
     59 H          -3.9202   -4.1179   -0.8262 H       1  UNL1        0.0000
     60 H           1.8015   -5.4666   -0.9174 H       1  UNL1        0.0000
     61 C          -1.1429   -0.6863    2.6979 C.3     1  UNL1        0.0000
     62 C          -1.1963   -0.7713    4.0837 C.2     1  UNL1        0.0000
     63 C          -0.0302   -1.0809    4.7836 C.2     1  UNL1        0.0000
     64 C           1.1500   -1.2989    4.0729 C.2     1  UNL1        0.0000
     65 C           1.1255   -1.1997    2.6872 C.2     1  UNL1        0.0000
     66 N          -0.0016   -0.8973    2.0177 N.pl3   1  UNL1        0.0000
     67 H          -0.0414   -1.1532    5.8668 H       1  UNL1        0.0000
     68 H          -2.0215   -0.4502    2.1075 H       1  UNL1        0.0000
     69 H          -2.1354   -0.5975    4.5974 H       1  UNL1        0.0000
     70 H           2.0781   -1.5429    4.5780 H       1  UNL1        0.0000
     71 H           2.0150   -1.3666    2.0894 H       1  UNL1        0.0000
     72 H          -1.2132    6.5248    1.7356 H       1  UNL1        0.0000
     73 H          -1.1713    4.0422    1.5963 H       1  UNL1        0.0000
     74 H           1.0452    4.2969   -2.0737 H       1  UNL1        0.0000
     75 H           1.0162    6.7651   -1.9247 H       1  UNL1        0.0000
     76 C          -0.1513    8.2784    0.0581 C.2     1  UNL1        0.0000
     77 O          -0.6959    8.8756    0.9684 O.2     1  UNL1        0.0000
     78 O           0.4805    8.9291   -0.9481 O.3     1  UNL1        0.0000
     79 H           0.3813    9.8814   -0.7563 H       1  UNL1        0.0000
@<TRIPOS>BOND
     1     1     7    1
     2     1     9    1
     3     1    41    1
     4     2    12    1
     5     2    14    1
     6     2    35    1
     7     3    17    1
     8     3    19    1
     9     3    24    1
    10     4     5   ar
    11     4     8   ar
    12     4    22    1
    13     5     6   ar
    14     5    53    1
    15     6     7   ar
    16     6    59    1
    17     7     8   ar
    18     8    52    1
    19     9    10   ar
    20     9    13   ar
    21    10    11   ar
    22    10    54    1
    23    11    12   ar
    24    11    55    1
    25    12    13   ar
    26    13    52    1
    27    14    15   ar
    28    14    18   ar
    29    15    16   ar
    30    15    56    1
    31    16    17   ar
    32    16    57    1
    33    17    18   ar
    34    18    52    1
    35    19    20   ar
    36    19    23   ar
    37    20    21   ar
    38    20    58    1
    39    21    22   ar
    40    21    60    1
    41    22    23   ar
    42    23    52    1
    43    24    25   ar
    44    24    29   ar
    45    25    26   ar
    46    25    30    1
    47    26    27   ar
    48    26    31    1
    49    27    28   ar
    50    27    32    1
    51    28    29   ar
    52    28    33    1
    53    29    34    1
    54    35    36   ar
    55    35    40   ar
    56    36    37   ar
    57    36    74    1
    58    37    38   ar
    59    37    75    1
    60    38    39   ar
    61    38    76    1
    62    39    40   ar
    63    39    72    1
    64    40    73    1
    65    41    42   ar
    66    41    46   ar
    67    42    43   ar
    68    42    47    1
    69    43    44   ar
    70    43    48    1
    71    44    45   ar
    72    44    49    1
    73    45    46   ar
    74    45    50    1
    75    46    51    1
    76    52    66    1
    77    61    62    1
    78    61    66    1
    79    61    68    1
    80    62    63    2
    81    62    69    1
    82    63    64    1
    83    63    67    1
    84    64    65    2
    85    64    70    1
    86    65    66    1
    87    65    71    1
    88    76    77    2
    89    76    78    1
    90    78    79    1
