@<TRIPOS>MOLECULE
F10Ga_4_Formyl_TD
 78 89 0 0 0
SMALL
GASTEIGER

@<TRIPOS>ATOM
      1 C          -3.3251   -1.0194   -0.4944 C.3     1  UNL1        0.0000
      2 C          -0.0436    2.6636   -0.3743 C.3     1  UNL1        0.0000
      3 C           3.3977   -0.8707   -0.4420 C.3     1  UNL1        0.0000
      4 C          -0.6244   -3.3669   -0.5988 C.ar    1  UNL1        0.0000
      5 C          -1.6887   -4.3089   -0.7253 C.ar    1  UNL1        0.0000
      6 C          -2.8793   -3.5921   -0.6860 C.ar    1  UNL1        0.0000
      7 C          -2.5452   -2.1999   -0.5472 C.ar    1  UNL1        0.0000
      8 N          -1.1863   -2.1224   -0.4889 N.ar    1  UNL1        0.0000
      9 C          -2.7851    0.2883   -0.4550 C.ar    1  UNL1        0.0000
     10 C          -3.5114    1.5276   -0.5218 C.ar    1  UNL1        0.0000
     11 C          -2.6051    2.5593   -0.4939 C.ar    1  UNL1        0.0000
     12 C          -1.2883    1.9865   -0.3966 C.ar    1  UNL1        0.0000
     13 N          -1.4346    0.6127   -0.3722 N.ar    1  UNL1        0.0000
     14 C           1.2287    2.0410   -0.3949 C.ar    1  UNL1        0.0000
     15 C           2.5231    2.6709   -0.3592 C.ar    1  UNL1        0.0000
     16 C           3.4738    1.6810   -0.3778 C.ar    1  UNL1        0.0000
     17 C           2.8006    0.4110   -0.4192 C.ar    1  UNL1        0.0000
     18 N           1.4334    0.6738   -0.4190 N.ar    1  UNL1        0.0000
     19 C           2.6706   -2.0857   -0.4925 C.ar    1  UNL1        0.0000
     20 C           3.0687   -3.4574   -0.6555 C.ar    1  UNL1        0.0000
     21 C           1.9118   -4.2279   -0.7105 C.ar    1  UNL1        0.0000
     22 C           0.8053   -3.3380   -0.5738 C.ar    1  UNL1        0.0000
     23 N           1.3107   -2.0728   -0.4277 N.ar    1  UNL1        0.0000
     24 C           4.8776   -0.9684   -0.3903 C.ar    1  UNL1        0.0000
     25 C           5.5098   -1.5936    0.6900 C.ar    1  UNL1        0.0000
     26 C           6.8913   -1.7321    0.7626 C.ar    1  UNL1        0.0000
     27 C           7.6853   -1.2289   -0.2636 C.ar    1  UNL1        0.0000
     28 C           7.0902   -0.5949   -1.3499 C.ar    1  UNL1        0.0000
     29 C           5.7048   -0.4771   -1.4049 C.ar    1  UNL1        0.0000
     30 F           4.7783   -2.0690    1.7132 F       1  UNL1        0.0000
     31 F           7.4620   -2.3313    1.8160 F       1  UNL1        0.0000
     32 F           9.0150   -1.3515   -0.2037 F       1  UNL1        0.0000
     33 F           7.8525   -0.1148   -2.3406 F       1  UNL1        0.0000
     34 F           5.1706    0.1269   -2.4759 F       1  UNL1        0.0000
     35 C          -0.0837    4.1511   -0.3366 C.ar    1  UNL1        0.0000
     36 C           0.5212    4.9182   -1.3468 C.ar    1  UNL1        0.0000
     37 C           0.4787    6.3081   -1.3010 C.ar    1  UNL1        0.0000
     38 C          -0.1729    6.9624   -0.2474 C.ar    1  UNL1        0.0000
     39 C          -0.7828    6.2044    0.7643 C.ar    1  UNL1        0.0000
     40 C          -0.7366    4.8185    0.7188 C.ar    1  UNL1        0.0000
     41 C          -4.8026   -1.1555   -0.4569 C.ar    1  UNL1        0.0000
     42 C          -5.5357   -0.7276    0.6554 C.ar    1  UNL1        0.0000
     43 C          -6.9188   -0.8499    0.7241 C.ar    1  UNL1        0.0000
     44 C          -7.6094   -1.4296   -0.3361 C.ar    1  UNL1        0.0000
     45 C          -6.9109   -1.8751   -1.4539 C.ar    1  UNL1        0.0000
     46 C          -5.5277   -1.7313   -1.5046 C.ar    1  UNL1        0.0000
     47 F          -4.9023   -0.1871    1.7114 F       1  UNL1        0.0000
     48 F          -7.5872   -0.4298    1.8063 F       1  UNL1        0.0000
     49 F          -8.9387   -1.5587   -0.2793 F       1  UNL1        0.0000
     50 F          -7.5745   -2.4261   -2.4779 F       1  UNL1        0.0000
     51 F          -4.8948   -2.1600   -2.6060 F       1  UNL1        0.0000
     52 GA          0.0278   -0.6340   -0.1134 Ga      1  UNL1        0.0000
     53 H          -1.5828   -5.3800   -0.8379 H       1  UNL1        0.0000
     54 H          -4.5849    1.6139   -0.6175 H       1  UNL1        0.0000
     55 H          -2.8227    3.6152   -0.5623 H       1  UNL1        0.0000
     56 H           2.6998    3.7358   -0.3226 H       1  UNL1        0.0000
     57 H           4.5459    1.8182   -0.3616 H       1  UNL1        0.0000
     58 H           4.0858   -3.8142   -0.7500 H       1  UNL1        0.0000
     59 H          -3.8777   -3.9999   -0.7685 H       1  UNL1        0.0000
     60 H           1.8554   -5.2997   -0.8493 H       1  UNL1        0.0000
     61 C          -1.1184   -0.4839    2.7046 C.3     1  UNL1        0.0000
     62 C          -1.1651   -0.5473    4.0918 C.2     1  UNL1        0.0000
     63 C           0.0050   -0.8427    4.7911 C.2     1  UNL1        0.0000
     64 C           1.1827   -1.0683    4.0785 C.2     1  UNL1        0.0000
     65 C           1.1517   -0.9907    2.6915 C.2     1  UNL1        0.0000
     66 N           0.0206   -0.7021    2.0226 N.pl3   1  UNL1        0.0000
     67 H          -0.0011   -0.8981    5.8753 H       1  UNL1        0.0000
     68 H          -2.0002   -0.2598    2.1145 H       1  UNL1        0.0000
     69 H          -2.1024   -0.3683    4.6070 H       1  UNL1        0.0000
     70 H           2.1137   -1.3019    4.5832 H       1  UNL1        0.0000
     71 H           2.0388   -1.1643    2.0924 H       1  UNL1        0.0000
     72 H          -1.2786    6.7227    1.5791 H       1  UNL1        0.0000
     73 H          -1.1974    4.2316    1.5072 H       1  UNL1        0.0000
     74 H           1.0103    4.4143   -2.1738 H       1  UNL1        0.0000
     75 H           0.9444    6.8933   -2.0906 H       1  UNL1        0.0000
     76 C          -0.2153    8.4355   -0.2111 C.2     1  UNL1        0.0000
     77 O          -0.7570    9.0960    0.6588 O.2     1  UNL1        0.0000
     78 H           0.2986    8.9344   -1.0615 H       1  UNL1        0.0000
@<TRIPOS>BOND
     1     1     7    1
     2     1     9    1
     3     1    41    1
     4     2    12    1
     5     2    14    1
     6     2    35    1
     7     3    17    1
     8     3    19    1
     9     3    24    1
    10     4     5   ar
    11     4     8   ar
    12     4    22    1
    13     5     6   ar
    14     5    53    1
    15     6     7   ar
    16     6    59    1
    17     7     8   ar
    18     8    52    1
    19     9    10   ar
    20     9    13   ar
    21    10    11   ar
    22    10    54    1
    23    11    12   ar
    24    11    55    1
    25    12    13   ar
    26    13    52    1
    27    14    15   ar
    28    14    18   ar
    29    15    16   ar
    30    15    56    1
    31    16    17   ar
    32    16    57    1
    33    17    18   ar
    34    18    52    1
    35    19    20   ar
    36    19    23   ar
    37    20    21   ar
    38    20    58    1
    39    21    22   ar
    40    21    60    1
    41    22    23   ar
    42    23    52    1
    43    24    25   ar
    44    24    29   ar
    45    25    26   ar
    46    25    30    1
    47    26    27   ar
    48    26    31    1
    49    27    28   ar
    50    27    32    1
    51    28    29   ar
    52    28    33    1
    53    29    34    1
    54    35    36   ar
    55    35    40   ar
    56    36    37   ar
    57    36    74    1
    58    37    38   ar
    59    37    75    1
    60    38    39   ar
    61    38    76    1
    62    39    40   ar
    63    39    72    1
    64    40    73    1
    65    41    42   ar
    66    41    46   ar
    67    42    43   ar
    68    42    47    1
    69    43    44   ar
    70    43    48    1
    71    44    45   ar
    72    44    49    1
    73    45    46   ar
    74    45    50    1
    75    46    51    1
    76    52    66    1
    77    61    62    1
    78    61    66    1
    79    61    68    1
    80    62    63    2
    81    62    69    1
    82    63    64    1
    83    63    67    1
    84    64    65    2
    85    64    70    1
    86    65    66    1
    87    65    71    1
    88    76    77    2
    89    76    78    1
