# 150h_2N_TD
# Created by GaussView 6.0.16
#

#
#

@<TRIPOS>MOLECULE
Molecule Name
84 92
SMALL
NO_CHARGES


@<TRIPOS>ATOM
1 C1     2.3685    -0.8593    -0.1334 C
2 C2    -1.4479     2.2521    -0.0138 C
3 C3    -4.4368    -1.6263    -0.0641 C
4 C4    -0.0893    -3.4995    -0.3333 C
5 C5     1.0206    -4.2821     0.0485 C
6 C6     2.1343    -3.4423     0.1378 C
7 C7     1.7269    -2.1208    -0.1772 C
8 N8     0.3818    -2.2079    -0.4795 N
9 C9     1.6538     0.3493    -0.1340 C
10 C10     2.1476     1.6879    -0.2668 C
11 C11     1.0831     2.5563    -0.2467 C
12 C12    -0.1228     1.7983    -0.0864 C
13 N13     0.2661     0.4748    -0.0433 N
14 C14    -2.6145     1.4441     0.0307 C
15 C15    -3.9730     1.9629     0.1233 C
16 C16    -4.8085     0.8887     0.1116 C
17 C17    -3.9720    -0.2948     0.0151 C
18 N18    -2.6420     0.0832    -0.0244 N
19 C19    -3.5626    -2.7241    -0.2410 C
20 C20    -3.7104    -4.1431    -0.2112 C
21 C21    -2.4397    -4.7077    -0.2788 C
22 C22    -1.4977    -3.6463    -0.3590 C
23 N23    -2.2252    -2.4882    -0.3724 N
24 C24     3.8522    -0.8189    -0.0720 C
25 C25     4.5661    -1.3146     1.0193 C
26 C26     5.9556    -1.3307     1.0620 C
27 C27     6.0122    -0.2588    -1.0554 C
28 C28     4.6291    -0.3050    -1.1157 C
29 H29     0.9857    -5.3317     0.3070 H
30 H30     3.1204    -3.7269     0.4738 H
31 H31    -0.0597    -1.5393    -1.0974 H
32 H32     3.1871     1.9486    -0.3989 H
33 H33     1.1250     3.6296    -0.3626 H
34 H34    -0.3545    -0.2228     0.3447 H
35 H35    -4.2503     3.0052     0.1964 H
36 H36    -5.8892     0.9002     0.1454 H
37 H37    -4.6473    -4.6758    -0.1281 H
38 H38    -2.1969    -5.7615    -0.2765 H
39 H39    -1.9084    -1.5163    -0.2685 H
40 F40     4.0278     0.2088    -2.2050 F
41 F41     6.6772     0.3104    -2.0816 F
42 F42     3.9053    -1.8502     2.0633 F
43 F43     6.5373    -1.9017     2.1386 F
44 C44     6.7403    -0.7849     0.0310 C
45 N45     8.1273    -0.6999     0.0423 N
46 C46     8.8616    -0.6798     1.3116 C
47 C47     8.8785    -1.3363    -1.0519 C
48 C48    10.2060     0.0258     1.0861 C
49 H49     9.0200    -1.6957     1.7020 H
50 C50    10.2273    -0.6276    -1.2167 C
51 H51     8.3063    -1.2609    -1.9764 H
52 H52    10.7854     0.0153     2.0159 H
53 H53    10.0317     0.3997    -1.5498 H
54 H54    10.0060     1.0723     0.8221 H
55 H55     8.2778    -0.1269     2.0505 H
56 H56     9.0229    -2.4070    -0.8329 H
57 H57    10.8185    -1.1294    -1.9906 H
58 N58    11.0123    -0.5616     0.0163 N
59 C59    11.6416    -1.8252     0.3800 C
60 H60    12.2923    -2.1495    -0.4398 H
61 H61    12.2670    -1.6708     1.2664 H
62 H62    10.9462    -2.6535     0.6024 H
63 C63    -1.6288     3.7308    -0.0130 C
64 C64    -1.1639     4.5267     1.0386 C
65 C65    -2.2574     4.3942    -1.0717 C
66 C66    -1.3134     5.9098     1.0437 C
67 C67    -2.4303     5.7742    -1.0834 C
68 C68    -1.9532     6.5356    -0.0212 C
69 C69    -5.8858    -1.9106     0.0657 C
70 C70    -6.5912    -2.5781    -0.9424 C
71 C71    -6.6120    -1.5564     1.2089 C
72 C72    -7.9452    -2.8741    -0.8292 C
73 C73    -7.9689    -1.8324     1.3389 C
74 C74    -8.6383    -2.4968     0.3163 C
75 F75    -2.1079     7.8633    -0.0248 F
76 F76    -3.0379     6.3745    -2.1149 F
77 F77    -2.7159     3.6989    -2.1224 F
78 F78    -8.6298    -1.4793     2.4487 F
79 F79    -9.9408    -2.7718     0.4343 F
80 F80    -8.5866    -3.5080    -1.8192 F
81 F81    -5.9651    -2.9475    -2.0698 F
82 F82    -6.0032    -0.9393     2.2317 F
83 F83    -0.5473     3.9617     2.0873 F
84 F84    -0.8553     6.6395     2.0692 F
@<TRIPOS>BOND
1 1 7 Ar
2 1 9 Ar
3 1 24 1
4 2 12 Ar
5 2 14 Ar
6 2 63 1
7 3 17 Ar
8 3 19 Ar
9 3 69 1
10 4 5 Ar
11 4 8 1
12 4 22 Ar
13 5 6 Ar
14 5 29 1
15 6 7 Ar
16 6 30 1
17 7 8 Ar
18 8 31 1
19 9 10 Ar
20 9 13 1
21 10 11 2
22 10 32 1
23 11 12 Ar
24 11 33 1
25 12 13 Ar
26 13 34 1
27 14 15 1
28 14 18 Ar
29 15 16 2
30 15 35 1
31 16 17 1
32 16 36 1
33 17 18 1
34 19 20 Ar
35 19 23 Ar
36 20 21 Ar
37 20 37 1
38 21 22 Ar
39 21 38 1
40 22 23 Ar
41 23 39 1
42 24 25 Ar
43 24 28 Ar
44 25 26 Ar
45 25 42 1
46 26 43 1
47 26 44 Ar
48 27 28 2
49 27 41 1
50 27 44 Ar
51 28 40 1
52 44 45 1
53 45 46 1
54 45 47 1
55 46 48 1
56 46 49 1
57 46 55 1
58 47 50 1
59 47 51 1
60 47 56 1
61 48 52 1
62 48 54 1
63 48 58 1
64 50 53 1
65 50 57 1
66 50 58 1
67 58 59 1
68 59 60 1
69 59 61 1
70 59 62 1
71 63 64 Ar
72 63 65 Ar
73 64 66 Ar
74 64 83 1
75 65 67 Ar
76 65 77 1
77 66 68 Ar
78 66 84 1
79 67 68 Ar
80 67 76 1
81 68 75 1
82 69 70 Ar
83 69 71 Ar
84 70 72 Ar
85 70 81 1
86 71 73 Ar
87 71 82 1
88 72 74 Ar
89 72 80 1
90 73 74 Ar
91 73 78 1
92 74 79 1
