@<TRIPOS>MOLECULE
F10Ga_4_Furamide_TD
 90 102 0 0 0
SMALL
GASTEIGER

@<TRIPOS>ATOM
      1 C           3.1933   -2.6008   -0.6344 C.3     1  UNL1        0.0000
      2 C          -1.2375   -0.6326    0.2969 C.3     1  UNL1        0.0000
      3 C           0.9359    3.7307   -0.4736 C.3     1  UNL1        0.0000
      4 C           4.4792    0.6841   -1.2442 C.ar    1  UNL1        0.0000
      5 C           5.6675   -0.0384   -1.5635 C.ar    1  UNL1        0.0000
      6 C           5.3934   -1.3876   -1.3699 C.ar    1  UNL1        0.0000
      7 C           4.0249   -1.4972   -0.9422 C.ar    1  UNL1        0.0000
      8 N           3.5288   -0.2304   -0.8728 N.ar    1  UNL1        0.0000
      9 C           1.8164   -2.4946   -0.3213 C.ar    1  UNL1        0.0000
     10 C           0.8822   -3.5740   -0.1517 C.ar    1  UNL1        0.0000
     11 C          -0.3568   -3.0351    0.0959 C.ar    1  UNL1        0.0000
     12 C          -0.2216   -1.6025    0.1050 C.ar    1  UNL1        0.0000
     13 N           1.1053   -1.3110   -0.1519 N.ar    1  UNL1        0.0000
     14 C          -1.0627    0.7687    0.1769 C.ar    1  UNL1        0.0000
     15 C          -2.0416    1.8040    0.3849 C.ar    1  UNL1        0.0000
     16 C          -1.4292    3.0135    0.1686 C.ar    1  UNL1        0.0000
     17 C          -0.0553    2.7664   -0.1761 C.ar    1  UNL1        0.0000
     18 N           0.1303    1.3871   -0.1504 N.ar    1  UNL1        0.0000
     19 C           2.2733    3.4163   -0.8181 C.ar    1  UNL1        0.0000
     20 C           3.3831    4.2136   -1.2641 C.ar    1  UNL1        0.0000
     21 C           4.4487    3.3529   -1.5073 C.ar    1  UNL1        0.0000
     22 C           4.0023    2.0317   -1.2061 C.ar    1  UNL1        0.0000
     23 N           2.7014    2.1243   -0.7852 N.ar    1  UNL1        0.0000
     24 C           0.5753    5.1681   -0.3905 C.ar    1  UNL1        0.0000
     25 C           1.1843    5.9964    0.5583 C.ar    1  UNL1        0.0000
     26 C           0.8919    7.3520    0.6566 C.ar    1  UNL1        0.0000
     27 C          -0.0425    7.9154   -0.2074 C.ar    1  UNL1        0.0000
     28 C          -0.6720    7.1193   -1.1593 C.ar    1  UNL1        0.0000
     29 C          -0.3550    5.7671   -1.2450 C.ar    1  UNL1        0.0000
     30 F           2.0722    5.4822    1.4279 F       1  UNL1        0.0000
     31 F           1.4905    8.1138    1.5817 F       1  UNL1        0.0000
     32 F          -0.3365    9.2166   -0.1204 F       1  UNL1        0.0000
     33 F          -1.5676    7.6619   -1.9939 F       1  UNL1        0.0000
     34 F          -0.9722    5.0376   -2.1850 F       1  UNL1        0.0000
     35 C          -2.5997   -1.1313    0.6293 C.ar    1  UNL1        0.0000
     36 C          -3.7096   -0.8024   -0.1730 C.ar    1  UNL1        0.0000
     37 C          -4.9820   -1.2604    0.1366 C.ar    1  UNL1        0.0000
     38 C          -5.1941   -2.0766    1.2626 C.ar    1  UNL1        0.0000
     39 C          -4.0907   -2.4096    2.0643 C.ar    1  UNL1        0.0000
     40 C          -2.8170   -1.9438    1.7534 C.ar    1  UNL1        0.0000
     41 C           3.8009   -3.9542   -0.6143 C.ar    1  UNL1        0.0000
     42 C           3.8538   -4.6981    0.5702 C.ar    1  UNL1        0.0000
     43 C           4.4280   -5.9628    0.6278 C.ar    1  UNL1        0.0000
     44 C           4.9848   -6.5161   -0.5214 C.ar    1  UNL1        0.0000
     45 C           4.9585   -5.8005   -1.7142 C.ar    1  UNL1        0.0000
     46 C           4.3674   -4.5411   -1.7500 C.ar    1  UNL1        0.0000
     47 F           3.3513   -4.1879    1.7088 F       1  UNL1        0.0000
     48 F           4.4632   -6.6435    1.7812 F       1  UNL1        0.0000
     49 F           5.5445   -7.7292   -0.4785 F       1  UNL1        0.0000
     50 F           5.4881   -6.3338   -2.8225 F       1  UNL1        0.0000
     51 F           4.3471   -3.8944   -2.9242 F       1  UNL1        0.0000
     52 GA          1.8489    0.4800   -0.1656 Ga      1  UNL1        0.0000
     53 H           6.6028    0.3884   -1.9014 H       1  UNL1        0.0000
     54 H           1.1224   -4.6238   -0.2492 H       1  UNL1        0.0000
     55 H          -1.2825   -3.5747    0.2323 H       1  UNL1        0.0000
     56 H          -3.0725    1.6427    0.6638 H       1  UNL1        0.0000
     57 H          -1.8874    3.9898    0.2421 H       1  UNL1        0.0000
     58 H           3.3742    5.2854   -1.4121 H       1  UNL1        0.0000
     59 H           6.0749   -2.2108   -1.5355 H       1  UNL1        0.0000
     60 H           5.4299    3.6273   -1.8721 H       1  UNL1        0.0000
     61 C           2.6959   -0.4758    2.5998 C.3     1  UNL1        0.0000
     62 C           3.0652   -0.4145    3.9380 C.2     1  UNL1        0.0000
     63 C           3.1077    0.8294    4.5674 C.2     1  UNL1        0.0000
     64 C           2.7838    1.9715    3.8354 C.2     1  UNL1        0.0000
     65 C           2.4273    1.8324    2.4995 C.2     1  UNL1        0.0000
     66 N           2.3834    0.6292    1.8990 N.pl3   1  UNL1        0.0000
     67 H           3.3912    0.9078    5.6126 H       1  UNL1        0.0000
     68 H           2.6473   -1.4179    2.0650 H       1  UNL1        0.0000
     69 H           3.3124   -1.3267    4.4698 H       1  UNL1        0.0000
     70 H           2.8060    2.9579    4.2853 H       1  UNL1        0.0000
     71 H           2.1744    2.6904    1.8866 H       1  UNL1        0.0000
     72 H          -4.2363   -3.0335    2.9428 H       1  UNL1        0.0000
     73 H          -5.8256   -0.9915   -0.4903 H       1  UNL1        0.0000
     74 H          -1.9780   -2.2001    2.3925 H       1  UNL1        0.0000
     75 H          -3.5591   -0.1890   -1.0557 H       1  UNL1        0.0000
     76 C          -6.5131   -2.5890    1.6188 C.2     1  UNL1        0.0000
     77 H          -6.5887   -3.1576    2.5542 H       1  UNL1        0.0000
     78 N          -7.5455   -2.3955    0.8760 N.2     1  UNL1        0.0000
     79 N          -8.7209   -2.9107    1.3042 N.am    1  UNL1        0.0000
     80 H          -8.7798   -3.3796    2.2090 H       1  UNL1        0.0000
     81 C          -9.9292   -2.7909    0.6406 C.2     1  UNL1        0.0000
     82 O         -10.9442   -3.2296    1.1728 O.2     1  UNL1        0.0000
     83 C          -9.9413   -2.1568   -0.6851 C.ar    1  UNL1        0.0000
     84 C          -9.0137   -1.6831   -1.5821 C.ar    1  UNL1        0.0000
     85 O         -11.1989   -2.0165   -1.2172 O.2     1  UNL1        0.0000
     86 C          -9.7418   -1.2280   -2.7204 C.ar    1  UNL1        0.0000
     87 H          -7.9467   -1.6747   -1.4361 H       1  UNL1        0.0000
     88 C         -11.0589   -1.4544   -2.4379 C.ar    1  UNL1        0.0000
     89 H          -9.3389   -0.7922   -3.6239 H       1  UNL1        0.0000
     90 H         -11.9755   -1.2768   -2.9813 H       1  UNL1        0.0000
@<TRIPOS>BOND
     1     1     7    1
     2     1     9    1
     3     1    41    1
     4     2    12    1
     5     2    14    1
     6     2    35    1
     7     3    17    1
     8     3    19    1
     9     3    24    1
    10     4     5   ar
    11     4     8   ar
    12     4    22    1
    13     5     6   ar
    14     5    53    1
    15     6     7   ar
    16     6    59    1
    17     7     8   ar
    18     8    52    1
    19     9    10   ar
    20     9    13   ar
    21    10    11   ar
    22    10    54    1
    23    11    12   ar
    24    11    55    1
    25    12    13   ar
    26    13    52    1
    27    14    15   ar
    28    14    18   ar
    29    15    16   ar
    30    15    56    1
    31    16    17   ar
    32    16    57    1
    33    17    18   ar
    34    18    52    1
    35    19    20   ar
    36    19    23   ar
    37    20    21   ar
    38    20    58    1
    39    21    22   ar
    40    21    60    1
    41    22    23   ar
    42    23    52    1
    43    24    25   ar
    44    24    29   ar
    45    25    26   ar
    46    25    30    1
    47    26    27   ar
    48    26    31    1
    49    27    28   ar
    50    27    32    1
    51    28    29   ar
    52    28    33    1
    53    29    34    1
    54    35    36   ar
    55    35    40   ar
    56    36    37   ar
    57    36    75    1
    58    37    38   ar
    59    37    73    1
    60    38    39   ar
    61    38    76    1
    62    39    40   ar
    63    39    72    1
    64    40    74    1
    65    41    42   ar
    66    41    46   ar
    67    42    43   ar
    68    42    47    1
    69    43    44   ar
    70    43    48    1
    71    44    45   ar
    72    44    49    1
    73    45    46   ar
    74    45    50    1
    75    46    51    1
    76    52    66    1
    77    61    62    1
    78    61    66    1
    79    61    68    1
    80    62    63    2
    81    62    69    1
    82    63    64    1
    83    63    67    1
    84    64    65    2
    85    64    70    1
    86    65    66    1
    87    65    71    1
    88    76    77    1
    89    76    78    2
    90    78    79    1
    91    79    80    1
    92    79    81   am
    93    81    82    2
    94    81    83    1
    95    83    84   ar
    96    83    85   ar
    97    84    86   ar
    98    84    87    1
    99    85    88   ar
   100    86    88   ar
   101    86    89    1
   102    88    90    1
