@<TRIPOS>MOLECULE
F10Ga_4_Pyridinamide_TD
 92 104 0 0 0
SMALL
GASTEIGER

@<TRIPOS>ATOM
      1 C           3.3883   -2.5026   -0.6525 C.3     1  UNL1        0.0000
      2 C          -1.0921   -0.6877    0.3538 C.3     1  UNL1        0.0000
      3 C           0.9190    3.7476   -0.4443 C.3     1  UNL1        0.0000
      4 C           4.5509    0.8244   -1.2793 C.ar    1  UNL1        0.0000
      5 C           5.7589    0.1436   -1.6158 C.ar    1  UNL1        0.0000
      6 C           5.5354   -1.2141   -1.4175 C.ar    1  UNL1        0.0000
      7 C           4.1779   -1.3712   -0.9697 C.ar    1  UNL1        0.0000
      8 N           3.6386   -0.1225   -0.8936 N.ar    1  UNL1        0.0000
      9 C           2.0130   -2.4434   -0.3208 C.ar    1  UNL1        0.0000
     10 C           1.1172   -3.5544   -0.1495 C.ar    1  UNL1        0.0000
     11 C          -0.1358   -3.0588    0.1171 C.ar    1  UNL1        0.0000
     12 C          -0.0478   -1.6225    0.1387 C.ar    1  UNL1        0.0000
     13 N           1.2654   -1.2855   -0.1324 N.ar    1  UNL1        0.0000
     14 C          -0.9653    0.7193    0.2394 C.ar    1  UNL1        0.0000
     15 C          -1.9732    1.7209    0.4731 C.ar    1  UNL1        0.0000
     16 C          -1.4057    2.9508    0.2495 C.ar    1  UNL1        0.0000
     17 C          -0.0322    2.7506   -0.1256 C.ar    1  UNL1        0.0000
     18 N           0.1998    1.3781   -0.1086 N.ar    1  UNL1        0.0000
     19 C           2.2592    3.4785   -0.8154 C.ar    1  UNL1        0.0000
     20 C           3.3298    4.3126   -1.2885 C.ar    1  UNL1        0.0000
     21 C           4.4203    3.4894   -1.5503 C.ar    1  UNL1        0.0000
     22 C           4.0281    2.1547   -1.2331 C.ar    1  UNL1        0.0000
     23 N           2.7339    2.2028   -0.7847 N.ar    1  UNL1        0.0000
     24 C           0.5104    5.1718   -0.3619 C.ar    1  UNL1        0.0000
     25 C           1.1176    6.0316    0.5597 C.ar    1  UNL1        0.0000
     26 C           0.7798    7.3769    0.6537 C.ar    1  UNL1        0.0000
     27 C          -0.2003    7.8975   -0.1860 C.ar    1  UNL1        0.0000
     28 C          -0.8290    7.0695   -1.1107 C.ar    1  UNL1        0.0000
     29 C          -0.4655    5.7288   -1.1940 C.ar    1  UNL1        0.0000
     30 F           2.0492    5.5593    1.4071 F       1  UNL1        0.0000
     31 F           1.3786    8.1690    1.5530 F       1  UNL1        0.0000
     32 F          -0.5386    9.1880   -0.1017 F       1  UNL1        0.0000
     33 F          -1.7684    7.5706   -1.9227 F       1  UNL1        0.0000
     34 F          -1.0823    4.9694   -2.1101 F       1  UNL1        0.0000
     35 C          -2.4311   -1.2348    0.7025 C.ar    1  UNL1        0.0000
     36 C          -3.5674   -0.9256   -0.0710 C.ar    1  UNL1        0.0000
     37 C          -4.8170   -1.4357    0.2498 C.ar    1  UNL1        0.0000
     38 C          -4.9756   -2.2887    1.3574 C.ar    1  UNL1        0.0000
     39 C          -3.8474   -2.6024    2.1310 C.ar    1  UNL1        0.0000
     40 C          -2.5977   -2.0816    1.8103 C.ar    1  UNL1        0.0000
     41 C           4.0389   -3.8359   -0.6424 C.ar    1  UNL1        0.0000
     42 C           4.1262   -4.5806    0.5395 C.ar    1  UNL1        0.0000
     43 C           4.7391   -5.8274    0.5879 C.ar    1  UNL1        0.0000
     44 C           5.3003   -6.3610   -0.5685 C.ar    1  UNL1        0.0000
     45 C           5.2406   -5.6437   -1.7590 C.ar    1  UNL1        0.0000
     46 C           4.6112   -4.4028   -1.7854 C.ar    1  UNL1        0.0000
     47 F           3.6189   -4.0895    1.6845 F       1  UNL1        0.0000
     48 F           4.8059   -6.5101    1.7388 F       1  UNL1        0.0000
     49 F           5.8965   -7.5570   -0.5344 F       1  UNL1        0.0000
     50 F           5.7752   -6.1580   -2.8737 F       1  UNL1        0.0000
     51 F           4.5600   -3.7539   -2.9574 F       1  UNL1        0.0000
     52 GA          1.9477    0.5297   -0.1554 Ga      1  UNL1        0.0000
     53 H           6.6734    0.6029   -1.9676 H       1  UNL1        0.0000
     54 H           1.3904   -4.5947   -0.2606 H       1  UNL1        0.0000
     55 H          -1.0416   -3.6302    0.2572 H       1  UNL1        0.0000
     56 H          -2.9920    1.5250    0.7730 H       1  UNL1        0.0000
     57 H          -1.8951    3.9108    0.3370 H       1  UNL1        0.0000
     58 H           3.2785    5.3825   -1.4410 H       1  UNL1        0.0000
     59 H           6.2429   -2.0130   -1.5930 H       1  UNL1        0.0000
     60 H           5.3830    3.7967   -1.9376 H       1  UNL1        0.0000
     61 C           2.8440   -0.3968    2.6049 C.3     1  UNL1        0.0000
     62 C           3.2236   -0.3209    3.9395 C.2     1  UNL1        0.0000
     63 C           3.2479    0.9273    4.5615 C.2     1  UNL1        0.0000
     64 C           2.8957    2.0588    3.8260 C.2     1  UNL1        0.0000
     65 C           2.5298    1.9053    2.4944 C.2     1  UNL1        0.0000
     66 N           2.5041    0.6980    1.9010 N.pl3   1  UNL1        0.0000
     67 H           3.5390    1.0171    5.6036 H       1  UNL1        0.0000
     68 H           2.8097   -1.3424    2.0751 H       1  UNL1        0.0000
     69 H           3.4931   -1.2250    4.4741 H       1  UNL1        0.0000
     70 H           2.9034    3.0480    4.2703 H       1  UNL1        0.0000
     71 H           2.2541    2.7544    1.8788 H       1  UNL1        0.0000
     72 H          -3.9536   -3.2531    2.9954 H       1  UNL1        0.0000
     73 H          -5.6824   -1.1887   -0.3564 H       1  UNL1        0.0000
     74 H          -1.7386   -2.3223    2.4281 H       1  UNL1        0.0000
     75 H          -3.4551   -0.2881   -0.9421 H       1  UNL1        0.0000
     76 C          -6.2699   -2.8587    1.7175 C.2     1  UNL1        0.0000
     77 H          -6.3048   -3.4942    2.6113 H       1  UNL1        0.0000
     78 N          -7.3247   -2.6326    1.0185 N.2     1  UNL1        0.0000
     79 N          -8.4802   -3.2134    1.4327 N.am    1  UNL1        0.0000
     80 H          -8.5110   -3.7093    2.3253 H       1  UNL1        0.0000
     81 C          -9.7103   -2.9932    0.8525 C.2     1  UNL1        0.0000
     82 O         -10.7209   -3.3892    1.4243 O.2     1  UNL1        0.0000
     83 C          -9.7813   -2.2910   -0.4701 C.ar    1  UNL1        0.0000
     84 C         -10.9393   -1.5528   -0.7353 C.ar    1  UNL1        0.0000
     85 C          -8.8221   -2.3966   -1.4831 C.ar    1  UNL1        0.0000
     86 C         -11.0708   -0.9301   -1.9740 C.ar    1  UNL1        0.0000
     87 H         -11.7161   -1.4740    0.0168 H       1  UNL1        0.0000
     88 C          -9.0619   -1.7485   -2.6947 C.ar    1  UNL1        0.0000
     89 H          -7.9142   -2.9677   -1.3414 H       1  UNL1        0.0000
     90 N         -10.1549   -1.0179   -2.9480 N.ar    1  UNL1        0.0000
     91 H         -11.9557   -0.3375   -2.1973 H       1  UNL1        0.0000
     92 H          -8.3346   -1.8206   -3.5011 H       1  UNL1        0.0000
@<TRIPOS>BOND
     1     1     7    1
     2     1     9    1
     3     1    41    1
     4     2    12    1
     5     2    14    1
     6     2    35    1
     7     3    17    1
     8     3    19    1
     9     3    24    1
    10     4     5   ar
    11     4     8   ar
    12     4    22    1
    13     5     6   ar
    14     5    53    1
    15     6     7   ar
    16     6    59    1
    17     7     8   ar
    18     8    52    1
    19     9    10   ar
    20     9    13   ar
    21    10    11   ar
    22    10    54    1
    23    11    12   ar
    24    11    55    1
    25    12    13   ar
    26    13    52    1
    27    14    15   ar
    28    14    18   ar
    29    15    16   ar
    30    15    56    1
    31    16    17   ar
    32    16    57    1
    33    17    18   ar
    34    18    52    1
    35    19    20   ar
    36    19    23   ar
    37    20    21   ar
    38    20    58    1
    39    21    22   ar
    40    21    60    1
    41    22    23   ar
    42    23    52    1
    43    24    25   ar
    44    24    29   ar
    45    25    26   ar
    46    25    30    1
    47    26    27   ar
    48    26    31    1
    49    27    28   ar
    50    27    32    1
    51    28    29   ar
    52    28    33    1
    53    29    34    1
    54    35    36   ar
    55    35    40   ar
    56    36    37   ar
    57    36    75    1
    58    37    38   ar
    59    37    73    1
    60    38    39   ar
    61    38    76    1
    62    39    40   ar
    63    39    72    1
    64    40    74    1
    65    41    42   ar
    66    41    46   ar
    67    42    43   ar
    68    42    47    1
    69    43    44   ar
    70    43    48    1
    71    44    45   ar
    72    44    49    1
    73    45    46   ar
    74    45    50    1
    75    46    51    1
    76    52    66    1
    77    61    62    1
    78    61    66    1
    79    61    68    1
    80    62    63    2
    81    62    69    1
    82    63    64    1
    83    63    67    1
    84    64    65    2
    85    64    70    1
    86    65    66    1
    87    65    71    1
    88    76    77    1
    89    76    78    2
    90    78    79    1
    91    79    80    1
    92    79    81   am
    93    81    82    2
    94    81    83    1
    95    83    84   ar
    96    83    85   ar
    97    84    86   ar
    98    84    87    1
    99    85    88   ar
   100    85    89    1
   101    86    90   ar
   102    86    91    1
   103    88    90   ar
   104    88    92    1
