@<TRIPOS>MOLECULE
F10Ga_4_Thiophenamide_TD
 90 102 0 0 0
SMALL
GASTEIGER

@<TRIPOS>ATOM
      1 C           3.2796   -2.7148   -0.6231 C.3     1  UNL1        0.0000
      2 C          -1.0635   -0.5633    0.3126 C.3     1  UNL1        0.0000
      3 C           1.2837    3.7040   -0.4830 C.3     1  UNL1        0.0000
      4 C           4.7056    0.5138   -1.2228 C.ar    1  UNL1        0.0000
      5 C           5.8633   -0.2580   -1.5396 C.ar    1  UNL1        0.0000
      6 C           5.5315   -1.5948   -1.3497 C.ar    1  UNL1        0.0000
      7 C           4.1581   -1.6469   -0.9259 C.ar    1  UNL1        0.0000
      8 N           3.7167   -0.3603   -0.8543 N.ar    1  UNL1        0.0000
      9 C           1.9099   -2.5512   -0.3037 C.ar    1  UNL1        0.0000
     10 C           0.9336   -3.5908   -0.1211 C.ar    1  UNL1        0.0000
     11 C          -0.2803   -3.0004    0.1334 C.ar    1  UNL1        0.0000
     12 C          -0.0874   -1.5743    0.1288 C.ar    1  UNL1        0.0000
     13 N           1.2484   -1.3386   -0.1376 N.ar    1  UNL1        0.0000
     14 C          -0.8341    0.8284    0.1771 C.ar    1  UNL1        0.0000
     15 C          -1.7721    1.9031    0.3737 C.ar    1  UNL1        0.0000
     16 C          -1.1115    3.0856    0.1501 C.ar    1  UNL1        0.0000
     17 C           0.2529    2.7817   -0.1872 C.ar    1  UNL1        0.0000
     18 N           0.3832    1.3962   -0.1522 N.ar    1  UNL1        0.0000
     19 C           2.6098    3.3348   -0.8167 C.ar    1  UNL1        0.0000
     20 C           3.7551    4.0855   -1.2539 C.ar    1  UNL1        0.0000
     21 C           4.7866    3.1816   -1.4874 C.ar    1  UNL1        0.0000
     22 C           4.2840    1.8801   -1.1893 C.ar    1  UNL1        0.0000
     23 N           2.9844    2.0264   -0.7798 N.ar    1  UNL1        0.0000
     24 C           0.9816    5.1551   -0.4033 C.ar    1  UNL1        0.0000
     25 C           1.6169    5.9577    0.5505 C.ar    1  UNL1        0.0000
     26 C           1.3800    7.3241    0.6471 C.ar    1  UNL1        0.0000
     27 C           0.4767    7.9256   -0.2243 C.ar    1  UNL1        0.0000
     28 C          -0.1780    7.1561   -1.1811 C.ar    1  UNL1        0.0000
     29 C           0.0829    5.7917   -1.2641 C.ar    1  UNL1        0.0000
     30 F           2.4752    5.4070    1.4275 F       1  UNL1        0.0000
     31 F           2.0021    8.0606    1.5771 F       1  UNL1        0.0000
     32 F           0.2365    9.2379   -0.1397 F       1  UNL1        0.0000
     33 F          -1.0430    7.7355   -2.0231 F       1  UNL1        0.0000
     34 F          -0.5581    5.0876   -2.2076 F       1  UNL1        0.0000
     35 C          -2.4418   -1.0027    0.6635 C.ar    1  UNL1        0.0000
     36 C          -3.5437   -0.6560   -0.1420 C.ar    1  UNL1        0.0000
     37 C          -4.8306   -1.0554    0.1894 C.ar    1  UNL1        0.0000
     38 C          -5.0653   -1.8255    1.3430 C.ar    1  UNL1        0.0000
     39 C          -3.9691   -2.1785    2.1462 C.ar    1  UNL1        0.0000
     40 C          -2.6808   -1.7733    1.8122 C.ar    1  UNL1        0.0000
     41 C           3.8248   -4.0947   -0.6281 C.ar    1  UNL1        0.0000
     42 C           3.8560   -4.8601    0.5430 C.ar    1  UNL1        0.0000
     43 C           4.3671   -6.1525    0.5719 C.ar    1  UNL1        0.0000
     44 C           4.8813   -6.7125   -0.5939 C.ar    1  UNL1        0.0000
     45 C           4.8746   -5.9764   -1.7744 C.ar    1  UNL1        0.0000
     46 C           4.3465   -4.6889   -1.7814 C.ar    1  UNL1        0.0000
     47 F           3.3930   -4.3449    1.6960 F       1  UNL1        0.0000
     48 F           4.3835   -6.8537    1.7134 F       1  UNL1        0.0000
     49 F           5.3809   -7.9523   -0.5785 F       1  UNL1        0.0000
     50 F           5.3623   -6.5164   -2.8985 F       1  UNL1        0.0000
     51 F           4.3412   -4.0226   -2.9445 F       1  UNL1        0.0000
     52 GA          2.0638    0.4204   -0.1590 Ga      1  UNL1        0.0000
     53 H           6.8170    0.1295   -1.8733 H       1  UNL1        0.0000
     54 H           1.1305   -4.6500   -0.2122 H       1  UNL1        0.0000
     55 H          -1.2256   -3.5014    0.2825 H       1  UNL1        0.0000
     56 H          -2.8094    1.7844    0.6500 H       1  UNL1        0.0000
     57 H          -1.5299    4.0803    0.2142 H       1  UNL1        0.0000
     58 H           3.7910    5.1567   -1.4021 H       1  UNL1        0.0000
     59 H           6.1792   -2.4459   -1.5117 H       1  UNL1        0.0000
     60 H           5.7814    3.4154   -1.8435 H       1  UNL1        0.0000
     61 C           2.9005   -0.5578    2.5999 C.3     1  UNL1        0.0000
     62 C           3.2793   -0.5086    3.9358 C.2     1  UNL1        0.0000
     63 C           3.3509    0.7321    4.5690 C.2     1  UNL1        0.0000
     64 C           3.0455    1.8831    3.8429 C.2     1  UNL1        0.0000
     65 C           2.6781    1.7556    2.5088 C.2     1  UNL1        0.0000
     66 N           2.6058    0.5556    1.9049 N.pl3   1  UNL1        0.0000
     67 H           3.6425    0.8012    5.6126 H       1  UNL1        0.0000
     68 H           2.8292   -1.4967    2.0619 H       1  UNL1        0.0000
     69 H           3.5116   -1.4273    4.4632 H       1  UNL1        0.0000
     70 H           3.0908    2.8672    4.2958 H       1  UNL1        0.0000
     71 H           2.4399    2.6206    1.8997 H       1  UNL1        0.0000
     72 H          -4.1326   -2.7685    3.0448 H       1  UNL1        0.0000
     73 H          -5.6670   -0.7752   -0.4423 H       1  UNL1        0.0000
     74 H          -1.8469   -2.0442    2.4520 H       1  UNL1        0.0000
     75 H          -3.3761   -0.0751   -1.0433 H       1  UNL1        0.0000
     76 C          -6.4004   -2.2677    1.7314 C.2     1  UNL1        0.0000
     77 H          -6.4857   -2.8129    2.6799 H       1  UNL1        0.0000
     78 N          -7.4374   -2.0375    1.0059 N.2     1  UNL1        0.0000
     79 N          -8.6259   -2.4840    1.4750 N.am    1  UNL1        0.0000
     80 H          -8.6778   -2.9404    2.3868 H       1  UNL1        0.0000
     81 C          -9.8451   -2.3309    0.8457 C.2     1  UNL1        0.0000
     82 O         -10.8539   -2.7359    1.4254 O.2     1  UNL1        0.0000
     83 C          -9.9212   -1.7037   -0.4827 C.ar    1  UNL1        0.0000
     84 C          -8.9825   -1.2464   -1.3840 C.ar    1  UNL1        0.0000
     85 S         -11.5440   -1.5018   -1.1097 S.2     1  UNL1        0.0000
     86 C          -9.5644   -0.7282   -2.5732 C.ar    1  UNL1        0.0000
     87 H          -7.9211   -1.2904   -1.1911 H       1  UNL1        0.0000
     88 C         -10.9347   -0.7987   -2.5631 C.ar    1  UNL1        0.0000
     89 H          -8.9894   -0.3225   -3.3982 H       1  UNL1        0.0000
     90 H         -11.6203   -0.4747   -3.3359 H       1  UNL1        0.0000
@<TRIPOS>BOND
     1     1     7    1
     2     1     9    1
     3     1    41    1
     4     2    12    1
     5     2    14    1
     6     2    35    1
     7     3    17    1
     8     3    19    1
     9     3    24    1
    10     4     5   ar
    11     4     8   ar
    12     4    22    1
    13     5     6   ar
    14     5    53    1
    15     6     7   ar
    16     6    59    1
    17     7     8   ar
    18     8    52    1
    19     9    10   ar
    20     9    13   ar
    21    10    11   ar
    22    10    54    1
    23    11    12   ar
    24    11    55    1
    25    12    13   ar
    26    13    52    1
    27    14    15   ar
    28    14    18   ar
    29    15    16   ar
    30    15    56    1
    31    16    17   ar
    32    16    57    1
    33    17    18   ar
    34    18    52    1
    35    19    20   ar
    36    19    23   ar
    37    20    21   ar
    38    20    58    1
    39    21    22   ar
    40    21    60    1
    41    22    23   ar
    42    23    52    1
    43    24    25   ar
    44    24    29   ar
    45    25    26   ar
    46    25    30    1
    47    26    27   ar
    48    26    31    1
    49    27    28   ar
    50    27    32    1
    51    28    29   ar
    52    28    33    1
    53    29    34    1
    54    35    36   ar
    55    35    40   ar
    56    36    37   ar
    57    36    75    1
    58    37    38   ar
    59    37    73    1
    60    38    39   ar
    61    38    76    1
    62    39    40   ar
    63    39    72    1
    64    40    74    1
    65    41    42   ar
    66    41    46   ar
    67    42    43   ar
    68    42    47    1
    69    43    44   ar
    70    43    48    1
    71    44    45   ar
    72    44    49    1
    73    45    46   ar
    74    45    50    1
    75    46    51    1
    76    52    66    1
    77    61    62    1
    78    61    66    1
    79    61    68    1
    80    62    63    2
    81    62    69    1
    82    63    64    1
    83    63    67    1
    84    64    65    2
    85    64    70    1
    86    65    66    1
    87    65    71    1
    88    76    77    1
    89    76    78    2
    90    78    79    1
    91    79    80    1
    92    79    81   am
    93    81    82    2
    94    81    83    1
    95    83    84   ar
    96    83    85   ar
    97    84    86   ar
    98    84    87    1
    99    85    88   ar
   100    86    88   ar
   101    86    89    1
   102    88    90    1
