@<TRIPOS>MOLECULE
F10Ga_N3_TD
 78 89 0 0 0
SMALL
GASTEIGER

@<TRIPOS>ATOM
      1 C          -3.3864   -0.9948   -0.5427 C.3     1  UNL1        0.0000
      2 C           0.0140    2.5570   -0.1142 C.3     1  UNL1        0.0000
      3 C           3.3365   -1.0728   -0.4750 C.3     1  UNL1        0.0000
      4 C          -0.7639   -3.4075   -0.8870 C.ar    1  UNL1        0.0000
      5 C          -1.8591   -4.3034   -1.0696 C.ar    1  UNL1        0.0000
      6 C          -3.0259   -3.5557   -0.9552 C.ar    1  UNL1        0.0000
      7 C          -2.6464   -2.1899   -0.7120 C.ar    1  UNL1        0.0000
      8 N          -1.2850   -2.1588   -0.6710 N.ar    1  UNL1        0.0000
      9 C          -2.8030    0.2875   -0.3980 C.ar    1  UNL1        0.0000
     10 C          -3.4878    1.5516   -0.3670 C.ar    1  UNL1        0.0000
     11 C          -2.5473    2.5470   -0.2594 C.ar    1  UNL1        0.0000
     12 C          -1.2506    1.9254   -0.2039 C.ar    1  UNL1        0.0000
     13 N          -1.4431    0.5589   -0.2902 N.ar    1  UNL1        0.0000
     14 C           1.2640    1.8935   -0.1654 C.ar    1  UNL1        0.0000
     15 C           2.5773    2.4722   -0.0519 C.ar    1  UNL1        0.0000
     16 C           3.4959    1.4566   -0.1531 C.ar    1  UNL1        0.0000
     17 C           2.7821    0.2208   -0.3312 C.ar    1  UNL1        0.0000
     18 N           1.4248    0.5286   -0.3215 N.ar    1  UNL1        0.0000
     19 C           2.5712   -2.2511   -0.6553 C.ar    1  UNL1        0.0000
     20 C           2.9257   -3.6179   -0.9259 C.ar    1  UNL1        0.0000
     21 C           1.7446   -4.3409   -1.0582 C.ar    1  UNL1        0.0000
     22 C           0.6660   -3.4273   -0.8645 C.ar    1  UNL1        0.0000
     23 N           1.2116   -2.1957   -0.6134 N.ar    1  UNL1        0.0000
     24 C           4.8113   -1.2234   -0.4049 C.ar    1  UNL1        0.0000
     25 C           5.4007   -1.9572    0.6303 C.ar    1  UNL1        0.0000
     26 C           6.7759   -2.1407    0.7200 C.ar    1  UNL1        0.0000
     27 C           7.6069   -1.5728   -0.2412 C.ar    1  UNL1        0.0000
     28 C           7.0550   -0.8301   -1.2802 C.ar    1  UNL1        0.0000
     29 C           5.6747   -0.6699   -1.3550 C.ar    1  UNL1        0.0000
     30 F           4.6324   -2.4964    1.5934 F       1  UNL1        0.0000
     31 F           7.3061   -2.8444    1.7292 F       1  UNL1        0.0000
     32 F           8.9313   -1.7372   -0.1638 F       1  UNL1        0.0000
     33 F           7.8534   -0.2875   -2.2082 F       1  UNL1        0.0000
     34 F           5.1815    0.0388   -2.3803 F       1  UNL1        0.0000
     35 C           0.0263    4.0405    0.0210 C.ar    1  UNL1        0.0000
     36 C           0.6630    4.8479   -0.9358 C.ar    1  UNL1        0.0000
     37 C           0.6768    6.2343   -0.8199 C.ar    1  UNL1        0.0000
     38 C           0.0405    6.8447    0.2682 C.ar    1  UNL1        0.0000
     39 C          -0.6019    6.0594    1.2313 C.ar    1  UNL1        0.0000
     40 C          -0.6045    4.6745    1.1045 C.ar    1  UNL1        0.0000
     41 C          -4.8664   -1.0873   -0.4829 C.ar    1  UNL1        0.0000
     42 C          -5.5589   -0.7355    0.6812 C.ar    1  UNL1        0.0000
     43 C          -6.9432   -0.8188    0.7758 C.ar    1  UNL1        0.0000
     44 C          -7.6787   -1.2787   -0.3126 C.ar    1  UNL1        0.0000
     45 C          -7.0220   -1.6468   -1.4825 C.ar    1  UNL1        0.0000
     46 C          -5.6361   -1.5449   -1.5568 C.ar    1  UNL1        0.0000
     47 F          -4.8836   -0.3101    1.7640 F       1  UNL1        0.0000
     48 F          -7.5708   -0.4746    1.9084 F       1  UNL1        0.0000
     49 F          -9.0101   -1.3686   -0.2324 F       1  UNL1        0.0000
     50 F          -7.7274   -2.0856   -2.5328 F       1  UNL1        0.0000
     51 F          -5.0455   -1.8972   -2.7076 F       1  UNL1        0.0000
     52 GA         -0.0238   -0.7546   -0.1573 Ga      1  UNL1        0.0000
     53 H          -1.7893   -5.3649   -1.2685 H       1  UNL1        0.0000
     54 H          -4.5576    1.6811   -0.4559 H       1  UNL1        0.0000
     55 H          -2.7290    3.6119   -0.2460 H       1  UNL1        0.0000
     56 H           2.7864    3.5226    0.0891 H       1  UNL1        0.0000
     57 H           4.5716    1.5540   -0.1083 H       1  UNL1        0.0000
     58 H           3.9318   -4.0010   -1.0348 H       1  UNL1        0.0000
     59 H          -4.0374   -3.9261   -1.0531 H       1  UNL1        0.0000
     60 H           1.6550   -5.3957   -1.2834 H       1  UNL1        0.0000
     61 C          -1.1923   -0.9059    2.6500 C.3     1  UNL1        0.0000
     62 C          -1.2543   -1.1039    4.0239 C.2     1  UNL1        0.0000
     63 C          -0.0892   -1.4541    4.7059 C.2     1  UNL1        0.0000
     64 C           1.0984   -1.5994    3.9890 C.2     1  UNL1        0.0000
     65 C           1.0822   -1.3896    2.6154 C.2     1  UNL1        0.0000
     66 N          -0.0440   -1.0471    1.9635 N.pl3   1  UNL1        0.0000
     67 H          -0.1067   -1.6140    5.7796 H       1  UNL1        0.0000
     68 H          -2.0699   -0.6322    2.0745 H       1  UNL1        0.0000
     69 H          -2.1993   -0.9836    4.5420 H       1  UNL1        0.0000
     70 H           2.0260   -1.8724    4.4799 H       1  UNL1        0.0000
     71 H           1.9781   -1.4995    2.0142 H       1  UNL1        0.0000
     72 N          -0.0029    8.2491    0.4717 N.2     1  UNL1        0.0000
     73 N           0.5356    8.9778   -0.3688 N.2     1  UNL1        0.0000
     74 N           0.9905    9.7570   -1.0674 N.2     1  UNL1        0.0000
     75 H          -1.0859    6.5457    2.0721 H       1  UNL1        0.0000
     76 H           1.1707    6.8375   -1.5765 H       1  UNL1        0.0000
     77 H          -1.0960    4.0702    1.8605 H       1  UNL1        0.0000
     78 H           1.1430    4.3804   -1.7894 H       1  UNL1        0.0000
@<TRIPOS>BOND
     1     1     7    1
     2     1     9    1
     3     1    41    1
     4     2    12    1
     5     2    14    1
     6     2    35    1
     7     3    17    1
     8     3    19    1
     9     3    24    1
    10     4     5   ar
    11     4     8   ar
    12     4    22    1
    13     5     6   ar
    14     5    53    1
    15     6     7   ar
    16     6    59    1
    17     7     8   ar
    18     8    52    1
    19     9    10   ar
    20     9    13   ar
    21    10    11   ar
    22    10    54    1
    23    11    12   ar
    24    11    55    1
    25    12    13   ar
    26    13    52    1
    27    14    15   ar
    28    14    18   ar
    29    15    16   ar
    30    15    56    1
    31    16    17   ar
    32    16    57    1
    33    17    18   ar
    34    18    52    1
    35    19    20   ar
    36    19    23   ar
    37    20    21   ar
    38    20    58    1
    39    21    22   ar
    40    21    60    1
    41    22    23   ar
    42    23    52    1
    43    24    25   ar
    44    24    29   ar
    45    25    26   ar
    46    25    30    1
    47    26    27   ar
    48    26    31    1
    49    27    28   ar
    50    27    32    1
    51    28    29   ar
    52    28    33    1
    53    29    34    1
    54    35    36   ar
    55    35    40   ar
    56    36    37   ar
    57    36    78    1
    58    37    38   ar
    59    37    76    1
    60    38    39   ar
    61    38    72    1
    62    39    40   ar
    63    39    75    1
    64    40    77    1
    65    41    42   ar
    66    41    46   ar
    67    42    43   ar
    68    42    47    1
    69    43    44   ar
    70    43    48    1
    71    44    45   ar
    72    44    49    1
    73    45    46   ar
    74    45    50    1
    75    46    51    1
    76    52    66    1
    77    61    62    1
    78    61    66    1
    79    61    68    1
    80    62    63    2
    81    62    69    1
    82    63    64    1
    83    63    67    1
    84    64    65    2
    85    64    70    1
    86    65    66    1
    87    65    71    1
    88    72    73    2
    89    73    74    2
