@<TRIPOS>MOLECULE
F10P_2_4_6_trimethoxyphenyl_TD
 81 91 0 0 0
SMALL
GASTEIGER

@<TRIPOS>ATOM
      1 C          -3.3597   -1.3783    0.0139 C.3     1  UNL1        0.1028
      2 C          -0.0006    2.1937   -0.0503 C.3     1  UNL1        0.1042
      3 C           3.3499   -1.3876    0.0667 C.3     1  UNL1        0.1028
      4 C          -0.7092   -3.7590   -0.0527 C.ar    1  UNL1        0.0768
      5 C          -1.7880   -4.6751   -0.0379 C.ar    1  UNL1       -0.0340
      6 C          -2.9512   -3.9241   -0.0034 C.ar    1  UNL1       -0.0385
      7 C          -2.5866   -2.5433   -0.0011 C.ar    1  UNL1        0.0484
      8 N          -1.2178   -2.4824   -0.0237 N.ar    1  UNL1       -0.2511
      9 C          -2.7600   -0.1175   -0.0063 C.ar    1  UNL1        0.0480
     10 C          -3.4471    1.1374   -0.0526 C.ar    1  UNL1       -0.0388
     11 C          -2.5132    2.1329   -0.0866 C.ar    1  UNL1       -0.0388
     12 C          -1.2217    1.5211   -0.0579 C.ar    1  UNL1        0.0481
     13 N          -1.3875    0.1449   -0.0149 N.ar    1  UNL1       -0.2555
     14 C           1.2196    1.5249    0.0010 C.ar    1  UNL1        0.0481
     15 C           2.5128    2.1301    0.0108 C.ar    1  UNL1       -0.0388
     16 C           3.4437    1.1302    0.0534 C.ar    1  UNL1       -0.0388
     17 C           2.7548   -0.1235    0.0717 C.ar    1  UNL1        0.0480
     18 N           1.3777    0.1436    0.0571 N.ar    1  UNL1       -0.2555
     19 C           2.5746   -2.5510   -0.0080 C.ar    1  UNL1        0.0484
     20 C           2.9326   -3.9315    0.0289 C.ar    1  UNL1       -0.0385
     21 C           1.7662   -4.6801   -0.0183 C.ar    1  UNL1       -0.0340
     22 C           0.6925   -3.7630   -0.0845 C.ar    1  UNL1        0.0768
     23 N           1.2054   -2.4842   -0.1096 N.ar    1  UNL1       -0.2511
     24 C           6.9282   -1.1504    1.3352 C.ar    1  UNL1        0.1967
     25 C           5.5449   -1.0359    1.2506 C.ar    1  UNL1        0.1687
     26 C           4.8247   -1.5065    0.1466 C.ar    1  UNL1        0.0481
     27 C           5.5652   -2.1157   -0.8723 C.ar    1  UNL1        0.1687
     28 C           6.9473   -2.2538   -0.8030 C.ar    1  UNL1        0.1967
     29 C          -0.3279    5.8389    1.0058 C.ar    1  UNL1        0.0223
     30 C          -0.3177    4.4448    1.0460 C.ar    1  UNL1        0.1315
     31 C          -0.0008    3.6827   -0.0964 C.ar    1  UNL1        0.0553
     32 C           0.3117    4.3659   -1.2813 C.ar    1  UNL1        0.1315
     33 C           0.3150    5.7671   -1.3438 C.ar    1  UNL1        0.0223
     34 C          -6.9268   -2.2342   -0.9834 C.ar    1  UNL1        0.1967
     35 C          -5.5420   -2.1054   -1.0012 C.ar    1  UNL1        0.1687
     36 C          -4.8380   -1.4902    0.0397 C.ar    1  UNL1        0.0481
     37 C          -5.5966   -1.0021    1.1095 C.ar    1  UNL1        0.1687
     38 C          -6.9830   -1.1080    1.1419 C.ar    1  UNL1        0.1967
     39 P          -0.0253   -1.1015   -0.0191 P.3     1  UNL1        0.2980
     40 O          -0.0513   -1.1815    1.6693 O.3     1  UNL1       -0.3088
     41 O          -0.0638   -0.9683   -1.7038 O.3     1  UNL1       -0.3088
     42 H          -1.7007   -5.7527   -0.0545 H       1  UNL1        0.0639
     43 H          -3.9654   -4.2969    0.0196 H       1  UNL1        0.0636
     44 H          -4.5219    1.2438   -0.0752 H       1  UNL1        0.0636
     45 H          -2.6774    3.1994   -0.1272 H       1  UNL1        0.0636
     46 H           2.6824    3.1963   -0.0149 H       1  UNL1        0.0636
     47 H           4.5192    1.2346    0.0518 H       1  UNL1        0.0636
     48 H           3.9440   -4.3072    0.0954 H       1  UNL1        0.0636
     49 H           1.6758   -5.7574    0.0033 H       1  UNL1        0.0639
     50 C          -7.6507   -1.7303    0.0921 C.ar    1  UNL1        0.1991
     51 C          -0.0099    6.4890   -0.1924 C.ar    1  UNL1        0.1271
     52 C           7.6323   -1.7658    0.3051 C.ar    1  UNL1        0.1991
     53 F          -8.9824   -1.8427    0.1165 F       1  UNL1       -0.1993
     54 F          -7.6766   -0.6282    2.1822 F       1  UNL1       -0.1993
     55 F          -4.9923   -0.4077    2.1478 F       1  UNL1       -0.2020
     56 F          -7.5670   -2.8267   -1.9996 F       1  UNL1       -0.1993
     57 F          -4.8847   -2.5900   -2.0644 F       1  UNL1       -0.2020
     58 F           4.9034   -0.4533    2.2741 F       1  UNL1       -0.2020
     59 F           7.5837   -0.6875    2.4071 F       1  UNL1       -0.1993
     60 F           7.6227   -2.8383   -1.8007 F       1  UNL1       -0.1993
     61 F           8.9611   -1.8868    0.3799 F       1  UNL1       -0.1993
     62 F           4.9453   -2.5832   -1.9663 F       1  UNL1       -0.2020
     63 H          -0.5664    6.4415    1.8717 H       1  UNL1        0.0691
     64 H           0.5560    6.2734   -2.2663 H       1  UNL1        0.0691
     65 H           0.5944   -0.5507    2.0269 H       1  UNL1        0.2223
     66 H           0.6956   -1.4450   -2.0780 H       1  UNL1        0.2223
     67 O          -0.0432    7.8489   -0.1382 O.3     1  UNL1       -0.4949
     68 O          -0.6051    3.7247    2.1630 O.3     1  UNL1       -0.4946
     69 C           0.2802    8.5773   -1.3148 C.3     1  UNL1        0.0788
     70 H           1.3079    8.3759   -1.6432 H       1  UNL1        0.0660
     71 H          -0.4144    8.3517   -2.1340 H       1  UNL1        0.0660
     72 H           0.1894    9.6322   -1.0482 H       1  UNL1        0.0660
     73 C          -0.9557    4.4276    3.3477 C.3     1  UNL1        0.0788
     74 H          -0.1332    5.0651    3.6961 H       1  UNL1        0.0660
     75 H          -1.8551    5.0388    3.2016 H       1  UNL1        0.0660
     76 H          -1.1606    3.6608    4.0971 H       1  UNL1        0.0660
     77 O           0.6061    3.5764   -2.3490 O.3     1  UNL1       -0.4946
     78 C           0.9418    4.1959   -3.5820 C.3     1  UNL1        0.0788
     79 H           1.1396    3.3790   -4.2785 H       1  UNL1        0.0660
     80 H           0.1142    4.8052   -3.9670 H       1  UNL1        0.0660
     81 H           1.8421    4.8169   -3.4895 H       1  UNL1        0.0660
@<TRIPOS>BOND
     1     1     7    1
     2     1     9    1
     3     1    36    1
     4     2    12    1
     5     2    14    1
     6     2    31    1
     7     3    17    1
     8     3    19    1
     9     3    26    1
    10     4     5   ar
    11     4     8   ar
    12     4    22    1
    13     5     6   ar
    14     5    42    1
    15     6     7   ar
    16     6    43    1
    17     7     8   ar
    18     8    39    1
    19     9    10   ar
    20     9    13   ar
    21    10    11   ar
    22    10    44    1
    23    11    12   ar
    24    11    45    1
    25    12    13   ar
    26    13    39    1
    27    14    15   ar
    28    14    18   ar
    29    15    16   ar
    30    15    46    1
    31    16    17   ar
    32    16    47    1
    33    17    18   ar
    34    18    39    1
    35    19    20   ar
    36    19    23   ar
    37    20    21   ar
    38    20    48    1
    39    21    22   ar
    40    21    49    1
    41    22    23   ar
    42    23    39    1
    43    24    25   ar
    44    24    52   ar
    45    24    59    1
    46    25    26   ar
    47    25    58    1
    48    26    27   ar
    49    27    28   ar
    50    27    62    1
    51    28    52   ar
    52    28    60    1
    53    29    30   ar
    54    29    51   ar
    55    29    63    1
    56    30    31   ar
    57    30    68    1
    58    31    32   ar
    59    32    33   ar
    60    32    77    1
    61    33    51   ar
    62    33    64    1
    63    34    35   ar
    64    34    50   ar
    65    34    56    1
    66    35    36   ar
    67    35    57    1
    68    36    37   ar
    69    37    38   ar
    70    37    55    1
    71    38    50   ar
    72    38    54    1
    73    39    40    1
    74    39    41    1
    75    40    65    1
    76    41    66    1
    77    50    53    1
    78    51    67    1
    79    52    61    1
    80    67    69    1
    81    68    73    1
    82    69    70    1
    83    69    71    1
    84    69    72    1
    85    73    74    1
    86    73    75    1
    87    73    76    1
    88    77    78    1
    89    78    79    1
    90    78    80    1
    91    78    81    1
