@<TRIPOS>MOLECULE
F10P_2_4_OH_TD
 71 81 0 0 0
SMALL
GASTEIGER

@<TRIPOS>ATOM
      1 C          -3.3365   -0.9848    0.0297 C.3     1  UNL1        0.1028
      2 C          -0.0034    2.5958   -0.3132 C.3     1  UNL1        0.1006
      3 C           3.3692   -0.9535    0.0089 C.3     1  UNL1        0.1028
      4 C          -0.6738   -3.3516    0.0158 C.ar    1  UNL1        0.0768
      5 C          -1.7459   -4.2721    0.1009 C.ar    1  UNL1       -0.0340
      6 C          -2.9126   -3.5265    0.1254 C.ar    1  UNL1       -0.0385
      7 C          -2.5568   -2.1448    0.0515 C.ar    1  UNL1        0.0484
      8 N          -1.1895   -2.0781   -0.0076 N.ar    1  UNL1       -0.2511
      9 C          -2.7460    0.2769   -0.0699 C.ar    1  UNL1        0.0480
     10 C          -3.4430    1.5221   -0.1784 C.ar    1  UNL1       -0.0388
     11 C          -2.5172    2.5192   -0.2978 C.ar    1  UNL1       -0.0388
     12 C          -1.2212    1.9179   -0.2574 C.ar    1  UNL1        0.0480
     13 N          -1.3758    0.5463   -0.1228 N.ar    1  UNL1       -0.2555
     14 C           1.2226    1.9388   -0.2300 C.ar    1  UNL1        0.0480
     15 C           2.5137    2.5505   -0.2483 C.ar    1  UNL1       -0.0388
     16 C           3.4491    1.5594   -0.1376 C.ar    1  UNL1       -0.0388
     17 C           2.7664    0.3060   -0.0497 C.ar    1  UNL1        0.0480
     18 N           1.3881    0.5642   -0.0865 N.ar    1  UNL1       -0.2555
     19 C           2.6017   -2.1237   -0.0154 C.ar    1  UNL1        0.0484
     20 C           2.9679   -3.4993    0.0856 C.ar    1  UNL1       -0.0385
     21 C           1.8063   -4.2561    0.0734 C.ar    1  UNL1       -0.0340
     22 C           0.7272   -3.3491   -0.0343 C.ar    1  UNL1        0.0768
     23 N           1.2322   -2.0700   -0.1230 N.ar    1  UNL1       -0.2511
     24 C           6.9394   -0.6219    1.2788 C.ar    1  UNL1        0.1967
     25 C           5.5554   -0.5255    1.1836 C.ar    1  UNL1        0.1687
     26 C           4.8446   -1.0565    0.1010 C.ar    1  UNL1        0.0481
     27 C           5.5955   -1.7055   -0.8853 C.ar    1  UNL1        0.1687
     28 C           6.9786   -1.8259   -0.8045 C.ar    1  UNL1        0.1967
     29 C          -0.3135    6.3061    0.4856 C.ar    1  UNL1        0.0216
     30 C          -0.3124    4.9182    0.6270 C.ar    1  UNL1        0.1248
     31 C          -0.0094    4.0793   -0.4632 C.ar    1  UNL1        0.0136
     32 C           0.2973    4.6824   -1.6858 C.ar    1  UNL1       -0.0503
     33 C           0.3060    6.0666   -1.8463 C.ar    1  UNL1       -0.0197
     34 C          -6.9195   -1.9011   -0.8494 C.ar    1  UNL1        0.1967
     35 C          -5.5358   -1.7703   -0.9017 C.ar    1  UNL1        0.1687
     36 C          -4.8133   -1.1017    0.0927 C.ar    1  UNL1        0.0481
     37 C          -5.5515   -0.5609    1.1512 C.ar    1  UNL1        0.1687
     38 C          -6.9366   -0.6682    1.2169 C.ar    1  UNL1        0.1967
     39 P          -0.0057   -0.6920   -0.0828 P.3     1  UNL1        0.2980
     40 O          -0.0109   -0.6938    1.6067 O.3     1  UNL1       -0.3088
     41 O          -0.0659   -0.6389   -1.7721 O.3     1  UNL1       -0.3088
     42 H          -1.6518   -5.3486    0.1357 H       1  UNL1        0.0639
     43 H          -3.9234   -3.9032    0.1907 H       1  UNL1        0.0636
     44 H          -4.5188    1.6206   -0.1823 H       1  UNL1        0.0636
     45 H          -2.6914    3.5796   -0.4034 H       1  UNL1        0.0636
     46 H           2.6810    3.6137   -0.3361 H       1  UNL1        0.0636
     47 H           4.5238    1.6699   -0.1366 H       1  UNL1        0.0636
     48 H           3.9811   -3.8663    0.1702 H       1  UNL1        0.0636
     49 H           1.7221   -5.3316    0.1468 H       1  UNL1        0.0639
     50 C          -7.6231   -1.3444    0.2136 C.ar    1  UNL1        0.1991
     51 C          -0.0039    6.8782   -0.7509 C.ar    1  UNL1        0.1203
     52 C           7.6539   -1.2782    0.2815 C.ar    1  UNL1        0.1991
     53 F          -8.9534   -1.4587    0.2706 F       1  UNL1       -0.1993
     54 F          -7.6108   -0.1378    2.2453 F       1  UNL1       -0.1993
     55 F          -4.9277    0.0874    2.1446 F       1  UNL1       -0.2020
     56 F          -7.5780   -2.5461   -1.8207 F       1  UNL1       -0.1993
     57 F          -4.8980   -2.3052   -1.9526 F       1  UNL1       -0.2020
     58 F           4.9040    0.1010    2.1742 F       1  UNL1       -0.2020
     59 F           7.5855   -0.1018    2.3297 F       1  UNL1       -0.1993
     60 F           7.6638   -2.4509   -1.7701 F       1  UNL1       -0.1993
     61 F           8.9833   -1.3818    0.3665 F       1  UNL1       -0.1993
     62 F           4.9847   -2.2303   -1.9582 F       1  UNL1       -0.2020
     63 H          -0.5450    6.9540    1.3268 H       1  UNL1        0.0691
     64 H           0.5445    6.5103   -2.8095 H       1  UNL1        0.0654
     65 H           0.5309    4.0441   -2.5326 H       1  UNL1        0.0623
     66 H           0.6074   -0.0184    1.9300 H       1  UNL1        0.2223
     67 H           0.6809   -1.1449   -2.1329 H       1  UNL1        0.2223
     68 O          -0.0191    8.2391   -0.8237 O.3     1  UNL1       -0.5066
     69 H           0.2085    8.5077   -1.7290 H       1  UNL1        0.2921
     70 O          -0.5977    4.3183    1.8165 O.3     1  UNL1       -0.5063
     71 H          -0.7962    5.0025    2.4768 H       1  UNL1        0.2921
@<TRIPOS>BOND
     1     1     7    1
     2     1     9    1
     3     1    36    1
     4     2    12    1
     5     2    14    1
     6     2    31    1
     7     3    17    1
     8     3    19    1
     9     3    26    1
    10     4     5   ar
    11     4     8   ar
    12     4    22    1
    13     5     6   ar
    14     5    42    1
    15     6     7   ar
    16     6    43    1
    17     7     8   ar
    18     8    39    1
    19     9    10   ar
    20     9    13   ar
    21    10    11   ar
    22    10    44    1
    23    11    12   ar
    24    11    45    1
    25    12    13   ar
    26    13    39    1
    27    14    15   ar
    28    14    18   ar
    29    15    16   ar
    30    15    46    1
    31    16    17   ar
    32    16    47    1
    33    17    18   ar
    34    18    39    1
    35    19    20   ar
    36    19    23   ar
    37    20    21   ar
    38    20    48    1
    39    21    22   ar
    40    21    49    1
    41    22    23   ar
    42    23    39    1
    43    24    25   ar
    44    24    52   ar
    45    24    59    1
    46    25    26   ar
    47    25    58    1
    48    26    27   ar
    49    27    28   ar
    50    27    62    1
    51    28    52   ar
    52    28    60    1
    53    29    30   ar
    54    29    51   ar
    55    29    63    1
    56    30    31   ar
    57    30    70    1
    58    31    32   ar
    59    32    33   ar
    60    32    65    1
    61    33    51   ar
    62    33    64    1
    63    34    35   ar
    64    34    50   ar
    65    34    56    1
    66    35    36   ar
    67    35    57    1
    68    36    37   ar
    69    37    38   ar
    70    37    55    1
    71    38    50   ar
    72    38    54    1
    73    39    40    1
    74    39    41    1
    75    40    66    1
    76    41    67    1
    77    50    53    1
    78    51    68    1
    79    52    61    1
    80    68    69    1
    81    70    71    1
