@<TRIPOS>MOLECULE
F10P_2_Br_4_OH_TD
 70 80 0 0 0
SMALL
GASTEIGER

@<TRIPOS>ATOM
      1 C          -3.4102   -1.1646   -0.0303 C.3     1  UNL1        0.1028
      2 C          -0.0135    2.2934   -0.7485 C.3     1  UNL1        0.0982
      3 C           3.2914   -1.2675   -0.0958 C.3     1  UNL1        0.1028
      4 C          -0.7960   -3.5826    0.0644 C.ar    1  UNL1        0.0768
      5 C          -1.8835   -4.4725    0.2359 C.ar    1  UNL1       -0.0340
      6 C          -3.0342   -3.7023    0.2323 C.ar    1  UNL1       -0.0385
      7 C          -2.6531   -2.3371    0.0505 C.ar    1  UNL1        0.0484
      8 N          -1.2868   -2.3047   -0.0464 N.ar    1  UNL1       -0.2511
      9 C          -2.7987    0.0721   -0.2473 C.ar    1  UNL1        0.0480
     10 C          -3.4713    1.3233   -0.4196 C.ar    1  UNL1       -0.0388
     11 C          -2.5286    2.2873   -0.6408 C.ar    1  UNL1       -0.0388
     12 C          -1.2458    1.6558   -0.6129 C.ar    1  UNL1        0.0479
     13 N          -1.4259    0.3030   -0.3725 N.ar    1  UNL1       -0.2555
     14 C           1.2018    1.6248   -0.6227 C.ar    1  UNL1        0.0479
     15 C           2.5024    2.2095   -0.7018 C.ar    1  UNL1       -0.0388
     16 C           3.4200    1.2189   -0.4870 C.ar    1  UNL1       -0.0388
     17 C           2.7149   -0.0074   -0.2754 C.ar    1  UNL1        0.0480
     18 N           1.3414    0.2705   -0.3442 N.ar    1  UNL1       -0.2555
     19 C           2.5007   -2.4208   -0.0352 C.ar    1  UNL1        0.0484
     20 C           2.8399   -3.7916    0.1720 C.ar    1  UNL1       -0.0385
     21 C           1.6653   -4.5271    0.1978 C.ar    1  UNL1       -0.0340
     22 C           0.6047   -3.6109    0.0120 C.ar    1  UNL1        0.0768
     23 N           1.1336   -2.3513   -0.1645 N.ar    1  UNL1       -0.2511
     24 C           6.8483   -0.8789    1.1925 C.ar    1  UNL1        0.1967
     25 C           5.4687   -0.7630    1.0614 C.ar    1  UNL1        0.1687
     26 C           4.7627   -1.3910    0.0285 C.ar    1  UNL1        0.0481
     27 C           5.5144   -2.1585   -0.8682 C.ar    1  UNL1        0.1687
     28 C           6.8926   -2.3002   -0.7482 C.ar    1  UNL1        0.1967
     29 C           0.2739    6.0427   -0.0933 C.ar    1  UNL1       -0.0059
     30 C           0.2586    4.6660    0.0893 C.ar    1  UNL1        0.0258
     31 C           0.0042    3.7678   -0.9584 C.ar    1  UNL1       -0.0139
     32 C          -0.2505    4.3206   -2.2200 C.ar    1  UNL1       -0.0528
     33 C          -0.2480    5.6958   -2.4343 C.ar    1  UNL1       -0.0198
     34 C          -7.0454   -2.0764   -0.6731 C.ar    1  UNL1        0.1967
     35 C          -5.6636   -1.9793   -0.7979 C.ar    1  UNL1        0.1687
     36 C          -4.8848   -1.2432    0.1016 C.ar    1  UNL1        0.0481
     37 C          -5.5648   -0.6003    1.1422 C.ar    1  UNL1        0.1687
     38 C          -6.9470   -0.6729    1.2785 C.ar    1  UNL1        0.1967
     39 P          -0.0767   -0.9534   -0.2343 P.3     1  UNL1        0.2980
     40 O          -0.0759   -0.8151    1.4493 O.3     1  UNL1       -0.3088
     41 O          -0.1444   -1.0337   -1.9221 O.3     1  UNL1       -0.3088
     42 H          -1.8094   -5.5452    0.3490 H       1  UNL1        0.0639
     43 H          -4.0503   -4.0515    0.3474 H       1  UNL1        0.0636
     44 H          -4.5436    1.4501   -0.3858 H       1  UNL1        0.0636
     45 H          -2.6848    3.3431   -0.8053 H       1  UNL1        0.0636
     46 H           2.6897    3.2548   -0.8988 H       1  UNL1        0.0636
     47 H           4.4965    1.3110   -0.4935 H       1  UNL1        0.0636
     48 H           3.8450   -4.1691    0.2963 H       1  UNL1        0.0636
     49 H           1.5602   -5.5925    0.3495 H       1  UNL1        0.0639
     50 C          -7.6904   -1.4174    0.3683 C.ar    1  UNL1        0.1991
     51 C           0.0172    6.5605   -1.3674 C.ar    1  UNL1        0.1179
     52 C           7.5633   -1.6544    0.2853 C.ar    1  UNL1        0.1991
     53 F          -9.0182   -1.4987    0.4934 F       1  UNL1       -0.1993
     54 F          -7.5637   -0.0431    2.2863 F       1  UNL1       -0.1993
     55 F          -4.8850    0.1141    2.0496 F       1  UNL1       -0.2020
     56 F          -7.7578   -2.7875   -1.5562 F       1  UNL1       -0.1993
     57 F          -5.0851   -2.6178   -1.8253 F       1  UNL1       -0.2020
     58 F           4.8164   -0.0227    1.9692 F       1  UNL1       -0.2020
     59 F           7.4888   -0.2628    2.1934 F       1  UNL1       -0.1993
     60 F           7.5773   -3.0400   -1.6293 F       1  UNL1       -0.1993
     61 F           8.8880   -1.7782    0.4059 F       1  UNL1       -0.1993
     62 F           4.9115   -2.7836   -1.8908 F       1  UNL1       -0.2020
     63 H           0.4719    6.7177    0.7306 H       1  UNL1        0.0665
     64 H          -0.4476    6.0966   -3.4252 H       1  UNL1        0.0654
     65 H          -0.4527    3.6492   -3.0487 H       1  UNL1        0.0622
     66 H           0.4905   -0.0707    1.7101 H       1  UNL1        0.2223
     67 H           0.6029   -1.5629   -2.2469 H       1  UNL1        0.2223
     68 O           0.0387    7.9140   -1.5007 O.3     1  UNL1       -0.5067
     69 H          -0.1534    8.1464   -2.4243 H       1  UNL1        0.2921
     70 BR          0.5888    3.9872    1.8477 Br      1  UNL1       -0.0499
@<TRIPOS>BOND
     1     1     7    1
     2     1     9    1
     3     1    36    1
     4     2    12    1
     5     2    14    1
     6     2    31    1
     7     3    17    1
     8     3    19    1
     9     3    26    1
    10     4     5   ar
    11     4     8   ar
    12     4    22    1
    13     5     6   ar
    14     5    42    1
    15     6     7   ar
    16     6    43    1
    17     7     8   ar
    18     8    39    1
    19     9    10   ar
    20     9    13   ar
    21    10    11   ar
    22    10    44    1
    23    11    12   ar
    24    11    45    1
    25    12    13   ar
    26    13    39    1
    27    14    15   ar
    28    14    18   ar
    29    15    16   ar
    30    15    46    1
    31    16    17   ar
    32    16    47    1
    33    17    18   ar
    34    18    39    1
    35    19    20   ar
    36    19    23   ar
    37    20    21   ar
    38    20    48    1
    39    21    22   ar
    40    21    49    1
    41    22    23   ar
    42    23    39    1
    43    24    25   ar
    44    24    52   ar
    45    24    59    1
    46    25    26   ar
    47    25    58    1
    48    26    27   ar
    49    27    28   ar
    50    27    62    1
    51    28    52   ar
    52    28    60    1
    53    29    30   ar
    54    29    51   ar
    55    29    63    1
    56    30    31   ar
    57    30    70    1
    58    31    32   ar
    59    32    33   ar
    60    32    65    1
    61    33    51   ar
    62    33    64    1
    63    34    35   ar
    64    34    50   ar
    65    34    56    1
    66    35    36   ar
    67    35    57    1
    68    36    37   ar
    69    37    38   ar
    70    37    55    1
    71    38    50   ar
    72    38    54    1
    73    39    40    1
    74    39    41    1
    75    40    66    1
    76    41    67    1
    77    50    53    1
    78    51    68    1
    79    52    61    1
    80    68    69    1
