@<TRIPOS>MOLECULE
F10P_3_4_5_trimethoxyphenyl_TD
 81 91 0 0 0
SMALL
GASTEIGER

@<TRIPOS>ATOM
      1 C          -3.3472   -1.6181    0.0212 C.3     1  UNL1        0.1028
      2 C          -0.0151    1.9842   -0.0836 C.3     1  UNL1        0.0974
      3 C           3.3616   -1.5782    0.0553 C.3     1  UNL1        0.1028
      4 C          -0.6798   -3.9772   -0.0129 C.ar    1  UNL1        0.0768
      5 C          -1.7517   -4.9020    0.0177 C.ar    1  UNL1       -0.0340
      6 C          -2.9200   -4.1602    0.0433 C.ar    1  UNL1       -0.0385
      7 C          -2.5657   -2.7761    0.0251 C.ar    1  UNL1        0.0484
      8 N          -1.1977   -2.7041    0.0011 N.ar    1  UNL1       -0.2511
      9 C          -2.7568   -0.3528   -0.0160 C.ar    1  UNL1        0.0480
     10 C          -3.4565    0.8920   -0.0848 C.ar    1  UNL1       -0.0388
     11 C          -2.5340    1.8981   -0.1278 C.ar    1  UNL1       -0.0388
     12 C          -1.2344    1.3019   -0.0763 C.ar    1  UNL1        0.0478
     13 N          -1.3866   -0.0765   -0.0194 N.ar    1  UNL1       -0.2555
     14 C           1.2138    1.3241   -0.0361 C.ar    1  UNL1        0.0478
     15 C           2.5060    1.9343   -0.0150 C.ar    1  UNL1       -0.0388
     16 C           3.4408    0.9378    0.0315 C.ar    1  UNL1       -0.0388
     17 C           2.7582   -0.3173    0.0492 C.ar    1  UNL1        0.0480
     18 N           1.3793   -0.0569    0.0276 N.ar    1  UNL1       -0.2555
     19 C           2.5944   -2.7463   -0.0061 C.ar    1  UNL1        0.0484
     20 C           2.9619   -4.1245    0.0483 C.ar    1  UNL1       -0.0385
     21 C           1.8010   -4.8809    0.0181 C.ar    1  UNL1       -0.0340
     22 C           0.7206   -3.9714   -0.0548 C.ar    1  UNL1        0.0768
     23 N           1.2243   -2.6894   -0.1029 N.ar    1  UNL1       -0.2511
     24 C           6.9362   -1.3125    1.3284 C.ar    1  UNL1        0.1967
     25 C           5.5524   -1.2066    1.2410 C.ar    1  UNL1        0.1687
     26 C           4.8372   -1.6870    0.1380 C.ar    1  UNL1        0.0481
     27 C           5.5823   -2.2975   -0.8766 C.ar    1  UNL1        0.1687
     28 C           6.9652   -2.4271   -0.8045 C.ar    1  UNL1        0.1967
     29 C          -0.6131    5.6140    0.8592 C.ar    1  UNL1        0.1655
     30 C          -0.5743    4.2174    0.9111 C.ar    1  UNL1       -0.0116
     31 C          -0.0286    3.4744   -0.1404 C.ar    1  UNL1       -0.0210
     32 C           0.5177    4.1470   -1.2418 C.ar    1  UNL1       -0.0116
     33 C           0.4928    5.5388   -1.2974 C.ar    1  UNL1        0.1655
     34 C          -6.9030   -2.5098   -0.9827 C.ar    1  UNL1        0.1967
     35 C          -5.5190   -2.3720   -0.9954 C.ar    1  UNL1        0.1687
     36 C          -4.8248   -1.7403    0.0421 C.ar    1  UNL1        0.0481
     37 C          -5.5912   -1.2444    1.1026 C.ar    1  UNL1        0.1687
     38 C          -6.9770   -1.3597    1.1298 C.ar    1  UNL1        0.1967
     39 P          -0.0154   -1.3142   -0.0207 P.3     1  UNL1        0.2980
     40 O          -0.0286   -1.3712    1.6686 O.3     1  UNL1       -0.3088
     41 O          -0.0692   -1.2012   -1.7059 O.3     1  UNL1       -0.3088
     42 H          -1.6555   -5.9789    0.0155 H       1  UNL1        0.0639
     43 H          -3.9313   -4.5401    0.0734 H       1  UNL1        0.0636
     44 H          -4.5320    0.9869   -0.1185 H       1  UNL1        0.0636
     45 H          -2.7166    2.9599   -0.1913 H       1  UNL1        0.0636
     46 H           2.6774    2.9998   -0.0353 H       1  UNL1        0.0636
     47 H           4.5155    1.0486    0.0370 H       1  UNL1        0.0636
     48 H           3.9759   -4.4927    0.1148 H       1  UNL1        0.0636
     49 H           1.7174   -5.9582    0.0558 H       1  UNL1        0.0639
     50 C          -7.6351   -1.9986    0.0838 C.ar    1  UNL1        0.1991
     51 C          -0.0864    6.2857   -0.2565 C.ar    1  UNL1        0.2035
     52 C           7.6453   -1.9291    0.3022 C.ar    1  UNL1        0.1991
     53 F          -8.9658   -2.1202    0.1034 F       1  UNL1       -0.1993
     54 F          -7.6788   -0.8729    2.1609 F       1  UNL1       -0.1993
     55 F          -4.9949   -0.6332    2.1356 F       1  UNL1       -0.2020
     56 F          -7.5341   -3.1186   -1.9945 F       1  UNL1       -0.1993
     57 F          -4.8524   -2.8641   -2.0491 F       1  UNL1       -0.2020
     58 F           4.9052   -0.6222    2.2599 F       1  UNL1       -0.2020
     59 F           7.5871   -0.8405    2.3987 F       1  UNL1       -0.1993
     60 F           7.6452   -3.0136   -1.7973 F       1  UNL1       -0.1993
     61 F           8.9743   -2.0420    0.3799 F       1  UNL1       -0.1993
     62 F           4.9657   -2.7755   -1.9677 F       1  UNL1       -0.2020
     63 H           0.6551   -0.7749    2.0144 H       1  UNL1        0.2223
     64 H           0.6729   -1.7020   -2.0835 H       1  UNL1        0.2223
     65 O          -0.1539    7.6581   -0.3427 O.3     1  UNL1       -0.4885
     66 C          -1.2470    8.1177   -1.1496 C.3     1  UNL1        0.0791
     67 H          -1.1551    7.7503   -2.1774 H       1  UNL1        0.0660
     68 H          -2.2057    7.7935   -0.7270 H       1  UNL1        0.0660
     69 H          -1.1963    9.2092   -1.1437 H       1  UNL1        0.0660
     70 H          -0.9833    3.7246    1.7862 H       1  UNL1        0.0658
     71 H           0.9446    3.5996   -2.0748 H       1  UNL1        0.0658
     72 O          -1.2321    6.2557    1.8939 O.3     1  UNL1       -0.4913
     73 C          -0.5638    7.3734    2.4910 C.3     1  UNL1        0.0790
     74 H           0.5056    7.1667    2.6187 H       1  UNL1        0.0660
     75 H          -0.6850    8.2837    1.8999 H       1  UNL1        0.0660
     76 H          -1.0244    7.5031    3.4738 H       1  UNL1        0.0660
     77 O           0.9644    6.1573   -2.4283 O.3     1  UNL1       -0.4913
     78 C           2.1054    7.0017   -2.2324 C.3     1  UNL1        0.0790
     79 H           2.3807    7.3734   -3.2221 H       1  UNL1        0.0660
     80 H           1.8744    7.8424   -1.5722 H       1  UNL1        0.0660
     81 H           2.9433    6.4267   -1.8169 H       1  UNL1        0.0660
@<TRIPOS>BOND
     1     1     7    1
     2     1     9    1
     3     1    36    1
     4     2    12    1
     5     2    14    1
     6     2    31    1
     7     3    17    1
     8     3    19    1
     9     3    26    1
    10     4     5   ar
    11     4     8   ar
    12     4    22    1
    13     5     6   ar
    14     5    42    1
    15     6     7   ar
    16     6    43    1
    17     7     8   ar
    18     8    39    1
    19     9    10   ar
    20     9    13   ar
    21    10    11   ar
    22    10    44    1
    23    11    12   ar
    24    11    45    1
    25    12    13   ar
    26    13    39    1
    27    14    15   ar
    28    14    18   ar
    29    15    16   ar
    30    15    46    1
    31    16    17   ar
    32    16    47    1
    33    17    18   ar
    34    18    39    1
    35    19    20   ar
    36    19    23   ar
    37    20    21   ar
    38    20    48    1
    39    21    22   ar
    40    21    49    1
    41    22    23   ar
    42    23    39    1
    43    24    25   ar
    44    24    52   ar
    45    24    59    1
    46    25    26   ar
    47    25    58    1
    48    26    27   ar
    49    27    28   ar
    50    27    62    1
    51    28    52   ar
    52    28    60    1
    53    29    30   ar
    54    29    51   ar
    55    29    72    1
    56    30    31   ar
    57    30    70    1
    58    31    32   ar
    59    32    33   ar
    60    32    71    1
    61    33    51   ar
    62    33    77    1
    63    34    35   ar
    64    34    50   ar
    65    34    56    1
    66    35    36   ar
    67    35    57    1
    68    36    37   ar
    69    37    38   ar
    70    37    55    1
    71    38    50   ar
    72    38    54    1
    73    39    40    1
    74    39    41    1
    75    40    63    1
    76    41    64    1
    77    50    53    1
    78    51    65    1
    79    52    61    1
    80    65    66    1
    81    66    67    1
    82    66    68    1
    83    66    69    1
    84    72    73    1
    85    73    74    1
    86    73    75    1
    87    73    76    1
    88    77    78    1
    89    78    79    1
    90    78    80    1
    91    78    81    1
