@<TRIPOS>MOLECULE
F10P_3_4_OH_TD
 71 81 0 0 0
SMALL
GASTEIGER

@<TRIPOS>ATOM
      1 C          -3.3101   -1.0816    0.0432 C.3     1  UNL1        0.1028
      2 C          -0.0216    2.5463   -0.3058 C.3     1  UNL1        0.0972
      3 C           3.3944   -0.9659    0.0297 C.3     1  UNL1        0.1028
      4 C          -0.6175   -3.4119    0.0476 C.ar    1  UNL1        0.0768
      5 C          -1.6775   -4.3461    0.1404 C.ar    1  UNL1       -0.0340
      6 C          -2.8534   -3.6163    0.1624 C.ar    1  UNL1       -0.0385
      7 C          -2.5157   -2.2301    0.0788 C.ar    1  UNL1        0.0484
      8 N          -1.1497   -2.1451    0.0187 N.ar    1  UNL1       -0.2511
      9 C          -2.7352    0.1870   -0.0692 C.ar    1  UNL1        0.0480
     10 C          -3.4504    1.4166   -0.2106 C.ar    1  UNL1       -0.0388
     11 C          -2.5401    2.4275   -0.3343 C.ar    1  UNL1       -0.0388
     12 C          -1.2331    1.8513   -0.2572 C.ar    1  UNL1        0.0478
     13 N          -1.3687    0.4778   -0.1065 N.ar    1  UNL1       -0.2555
     14 C           1.2134    1.9031   -0.2075 C.ar    1  UNL1        0.0478
     15 C           2.4979    2.5295   -0.1988 C.ar    1  UNL1       -0.0388
     16 C           3.4440    1.5482   -0.0912 C.ar    1  UNL1       -0.0388
     17 C           2.7760    0.2868   -0.0245 C.ar    1  UNL1        0.0480
     18 N           1.3948    0.5292   -0.0722 N.ar    1  UNL1       -0.2555
     19 C           2.6418   -2.1448    0.0026 C.ar    1  UNL1        0.0484
     20 C           3.0250   -3.5162    0.1039 C.ar    1  UNL1       -0.0385
     21 C           1.8728   -4.2865    0.0979 C.ar    1  UNL1       -0.0340
     22 C           0.7823   -3.3924   -0.0070 C.ar    1  UNL1        0.0768
     23 N           1.2715   -2.1073   -0.1008 N.ar    1  UNL1       -0.2511
     24 C           6.9621   -0.6075    1.3001 C.ar    1  UNL1        0.1967
     25 C           5.5771   -0.5245    1.2071 C.ar    1  UNL1        0.1687
     26 C           4.8710   -1.0525    0.1202 C.ar    1  UNL1        0.0481
     27 C           5.6271   -1.6849   -0.8727 C.ar    1  UNL1        0.1687
     28 C           7.0114   -1.7917   -0.7945 C.ar    1  UNL1        0.1967
     29 C          -0.6525    6.2221    0.3778 C.ar    1  UNL1        0.1585
     30 C          -0.6187    4.8406    0.5268 C.ar    1  UNL1       -0.0120
     31 C          -0.0461    4.0285   -0.4654 C.ar    1  UNL1       -0.0245
     32 C           0.4975    4.6290   -1.6073 C.ar    1  UNL1       -0.0536
     33 C           0.4718    6.0175   -1.7591 C.ar    1  UNL1       -0.0162
     34 C          -6.8778   -2.0571   -0.8358 C.ar    1  UNL1        0.1967
     35 C          -5.4956   -1.9105   -0.8848 C.ar    1  UNL1        0.1687
     36 C          -4.7855   -1.2164    0.1010 C.ar    1  UNL1        0.0481
     37 C          -5.5348   -0.6667    1.1472 C.ar    1  UNL1        0.1687
     38 C          -6.9187   -0.7896    1.2093 C.ar    1  UNL1        0.1967
     39 P           0.0165   -0.7440   -0.0640 P.3     1  UNL1        0.2980
     40 O           0.0117   -0.7384    1.6262 O.3     1  UNL1       -0.3088
     41 O          -0.0469   -0.6974   -1.7528 O.3     1  UNL1       -0.3088
     42 H          -1.5688   -5.4210    0.1810 H       1  UNL1        0.0639
     43 H          -3.8593   -4.0051    0.2309 H       1  UNL1        0.0636
     44 H          -4.5273    1.4974   -0.2358 H       1  UNL1        0.0636
     45 H          -2.7359    3.4806   -0.4667 H       1  UNL1        0.0636
     46 H           2.6565    3.5951   -0.2660 H       1  UNL1        0.0636
     47 H           4.5171    1.6727   -0.0756 H       1  UNL1        0.0636
     48 H           4.0427   -3.8708    0.1862 H       1  UNL1        0.0636
     49 H           1.8014   -5.3627    0.1736 H       1  UNL1        0.0639
     50 C          -7.5927   -1.4911    0.2147 C.ar    1  UNL1        0.1991
     51 C          -0.1016    6.8120   -0.7735 C.ar    1  UNL1        0.1582
     52 C           7.6821   -1.2472    0.2960 C.ar    1  UNL1        0.1991
     53 F          -8.9216   -1.6209    0.2684 F       1  UNL1       -0.1993
     54 F          -7.6034   -0.2505    2.2258 F       1  UNL1       -0.1993
     55 F          -4.9228    0.0054    2.1320 F       1  UNL1       -0.2020
     56 F          -7.5243   -2.7264   -1.7986 F       1  UNL1       -0.1993
     57 F          -4.8474   -2.4552   -1.9242 F       1  UNL1       -0.2020
     58 F           4.9197    0.0859    2.2040 F       1  UNL1       -0.2020
     59 F           7.6040   -0.0909    2.3551 F       1  UNL1       -0.1993
     60 F           7.7019   -2.4008   -1.7664 F       1  UNL1       -0.1993
     61 F           9.0126   -1.3378    0.3788 F       1  UNL1       -0.1993
     62 F           5.0198   -2.2068   -1.9490 F       1  UNL1       -0.2020
     63 H           0.8901    6.4807   -2.6501 H       1  UNL1        0.0655
     64 H           0.9310    4.0103   -2.3859 H       1  UNL1        0.0622
     65 H           0.6731   -0.1045    1.9475 H       1  UNL1        0.2223
     66 H           0.7045   -1.1964   -2.1138 H       1  UNL1        0.2223
     67 O          -0.1841    8.1810   -0.8175 O.3     1  UNL1       -0.5033
     68 H           0.2191    8.5094   -1.6369 H       1  UNL1        0.2923
     69 H          -1.0371    4.4027    1.4269 H       1  UNL1        0.0658
     70 O          -1.2088    6.9992    1.3475 O.3     1  UNL1       -0.5033
     71 H          -1.1250    7.9264    1.0638 H       1  UNL1        0.2923
@<TRIPOS>BOND
     1     1     7    1
     2     1     9    1
     3     1    36    1
     4     2    12    1
     5     2    14    1
     6     2    31    1
     7     3    17    1
     8     3    19    1
     9     3    26    1
    10     4     5   ar
    11     4     8   ar
    12     4    22    1
    13     5     6   ar
    14     5    42    1
    15     6     7   ar
    16     6    43    1
    17     7     8   ar
    18     8    39    1
    19     9    10   ar
    20     9    13   ar
    21    10    11   ar
    22    10    44    1
    23    11    12   ar
    24    11    45    1
    25    12    13   ar
    26    13    39    1
    27    14    15   ar
    28    14    18   ar
    29    15    16   ar
    30    15    46    1
    31    16    17   ar
    32    16    47    1
    33    17    18   ar
    34    18    39    1
    35    19    20   ar
    36    19    23   ar
    37    20    21   ar
    38    20    48    1
    39    21    22   ar
    40    21    49    1
    41    22    23   ar
    42    23    39    1
    43    24    25   ar
    44    24    52   ar
    45    24    59    1
    46    25    26   ar
    47    25    58    1
    48    26    27   ar
    49    27    28   ar
    50    27    62    1
    51    28    52   ar
    52    28    60    1
    53    29    30   ar
    54    29    51   ar
    55    29    70    1
    56    30    31   ar
    57    30    69    1
    58    31    32   ar
    59    32    33   ar
    60    32    64    1
    61    33    51   ar
    62    33    63    1
    63    34    35   ar
    64    34    50   ar
    65    34    56    1
    66    35    36   ar
    67    35    57    1
    68    36    37   ar
    69    37    38   ar
    70    37    55    1
    71    38    50   ar
    72    38    54    1
    73    39    40    1
    74    39    41    1
    75    40    65    1
    76    41    66    1
    77    50    53    1
    78    51    67    1
    79    52    61    1
    80    67    68    1
    81    70    71    1
