@<TRIPOS>MOLECULE
F10P_3_Br_4_OH_TD
 70 80 0 0 0
SMALL
GASTEIGER

@<TRIPOS>ATOM
      1 C          -3.0757   -1.8006   -0.0024 C.3     1  UNL1        0.1028
      2 C          -0.0997    2.0574   -0.5949 C.3     1  UNL1        0.0972
      3 C           3.5924   -1.1170    0.0342 C.3     1  UNL1        0.1028
      4 C          -0.1964   -3.8927    0.1237 C.ar    1  UNL1        0.0768
      5 C          -1.1745   -4.9057    0.2763 C.ar    1  UNL1       -0.0340
      6 C          -2.4069   -4.2766    0.2662 C.ar    1  UNL1       -0.0385
      7 C          -2.1872   -2.8740    0.0993 C.ar    1  UNL1        0.0484
      8 N          -0.8333   -2.6794    0.0224 N.ar    1  UNL1       -0.2511
      9 C          -2.6084   -0.4987   -0.2039 C.ar    1  UNL1        0.0480
     10 C          -3.4230    0.6517   -0.4409 C.ar    1  UNL1       -0.0388
     11 C          -2.5997    1.7231   -0.6417 C.ar    1  UNL1       -0.0388
     12 C          -1.2498    1.2677   -0.5125 C.ar    1  UNL1        0.0478
     13 N          -1.2710   -0.0968   -0.2587 N.ar    1  UNL1       -0.2555
     14 C           1.1834    1.5331   -0.4263 C.ar    1  UNL1        0.0478
     15 C           2.4087    2.2686   -0.4276 C.ar    1  UNL1       -0.0388
     16 C           3.4319    1.3815   -0.2367 C.ar    1  UNL1       -0.0388
     17 C           2.8723    0.0733   -0.1060 C.ar    1  UNL1        0.0480
     18 N           1.4773    0.1919   -0.1997 N.ar    1  UNL1       -0.2555
     19 C           2.9430   -2.3556    0.0540 C.ar    1  UNL1        0.0484
     20 C           3.4391   -3.6813    0.2410 C.ar    1  UNL1       -0.0385
     21 C           2.3575   -4.5472    0.2563 C.ar    1  UNL1       -0.0340
     22 C           1.1974   -3.7576    0.0801 C.ar    1  UNL1        0.0768
     23 N           1.5776   -2.4426   -0.0790 N.ar    1  UNL1       -0.2511
     24 C           7.0734   -0.3765    1.3749 C.ar    1  UNL1        0.1967
     25 C           5.6903   -0.4200    1.2381 C.ar    1  UNL1        0.1687
     26 C           5.0676   -1.0710    0.1670 C.ar    1  UNL1        0.0481
     27 C           5.9071   -1.6932   -0.7634 C.ar    1  UNL1        0.1687
     28 C           7.2923   -1.6739   -0.6401 C.ar    1  UNL1        0.1967
     29 C          -1.0454    5.7072   -0.1935 C.ar    1  UNL1        0.0595
     30 C          -0.9064    4.3472    0.0558 C.ar    1  UNL1       -0.0397
     31 C          -0.2434    3.5162   -0.8580 C.ar    1  UNL1       -0.0269
     32 C           0.2820    4.0937   -2.0218 C.ar    1  UNL1       -0.0537
     33 C           0.1495    5.4570   -2.2659 C.ar    1  UNL1       -0.0188
     34 C          -6.5621   -3.1390   -0.7274 C.ar    1  UNL1        0.1967
     35 C          -5.1977   -2.8846   -0.8174 C.ar    1  UNL1        0.1687
     36 C          -4.5341   -2.0507    0.0897 C.ar    1  UNL1        0.0481
     37 C          -5.3138   -1.4760    1.1004 C.ar    1  UNL1        0.1687
     38 C          -6.6817   -1.7057    1.2012 C.ar    1  UNL1        0.1967
     39 P           0.2118   -1.1925   -0.1314 P.3     1  UNL1        0.2980
     40 O           0.1846   -1.0919    1.5555 O.3     1  UNL1       -0.3088
     41 O           0.1677   -1.2473   -1.8201 O.3     1  UNL1       -0.3088
     42 H          -0.9757   -5.9635    0.3784 H       1  UNL1        0.0639
     43 H          -3.3761   -4.7445    0.3633 H       1  UNL1        0.0636
     44 H          -4.5025    0.6401   -0.4772 H       1  UNL1        0.0636
     45 H          -2.8843    2.7411   -0.8606 H       1  UNL1        0.0636
     46 H           2.4790    3.3382   -0.5556 H       1  UNL1        0.0636
     47 H           4.4893    1.5999   -0.2024 H       1  UNL1        0.0636
     48 H           4.4811   -3.9405    0.3657 H       1  UNL1        0.0636
     49 H           2.3760   -5.6196    0.3935 H       1  UNL1        0.0639
     50 C          -7.3082   -2.5442    0.2847 C.ar    1  UNL1        0.1991
     51 C          -0.5195    6.2847   -1.3572 C.ar    1  UNL1        0.1308
     52 C           7.8782   -1.0099    0.4329 C.ar    1  UNL1        0.1991
     53 F          -8.6206   -2.7772    0.3764 F       1  UNL1       -0.1993
     54 F          -7.3947   -1.1380    2.1817 F       1  UNL1       -0.1993
     55 F          -4.7469   -0.6763    2.0143 F       1  UNL1       -0.2020
     56 F          -7.1629   -3.9393   -1.6170 F       1  UNL1       -0.1993
     57 F          -4.5215   -3.4668   -1.8181 F       1  UNL1       -0.2020
     58 F           4.9503    0.1884    2.1764 F       1  UNL1       -0.2020
     59 F           7.6330    0.2568    2.4129 F       1  UNL1       -0.1993
     60 F           8.0632   -2.2771   -1.5533 F       1  UNL1       -0.1993
     61 F           9.2079   -0.9793    0.5575 F       1  UNL1       -0.1993
     62 F           5.3835   -2.3302   -1.8214 F       1  UNL1       -0.2020
     63 H           0.5587    5.8903   -3.1760 H       1  UNL1        0.0654
     64 H           0.7913    3.4661   -2.7460 H       1  UNL1        0.0622
     65 H           0.7585   -0.3636    1.8432 H       1  UNL1        0.2223
     66 H           0.9668   -1.6939   -2.1456 H       1  UNL1        0.2223
     67 O          -0.6800    7.6170   -1.5553 O.3     1  UNL1       -0.5057
     68 H          -0.2645    7.8617   -2.3989 H       1  UNL1        0.2922
     69 H          -1.3114    3.9308    0.9711 H       1  UNL1        0.0633
     70 BR         -1.9575    6.8085    1.0677 Br      1  UNL1       -0.0465
@<TRIPOS>BOND
     1     1     7    1
     2     1     9    1
     3     1    36    1
     4     2    12    1
     5     2    14    1
     6     2    31    1
     7     3    17    1
     8     3    19    1
     9     3    26    1
    10     4     5   ar
    11     4     8   ar
    12     4    22    1
    13     5     6   ar
    14     5    42    1
    15     6     7   ar
    16     6    43    1
    17     7     8   ar
    18     8    39    1
    19     9    10   ar
    20     9    13   ar
    21    10    11   ar
    22    10    44    1
    23    11    12   ar
    24    11    45    1
    25    12    13   ar
    26    13    39    1
    27    14    15   ar
    28    14    18   ar
    29    15    16   ar
    30    15    46    1
    31    16    17   ar
    32    16    47    1
    33    17    18   ar
    34    18    39    1
    35    19    20   ar
    36    19    23   ar
    37    20    21   ar
    38    20    48    1
    39    21    22   ar
    40    21    49    1
    41    22    23   ar
    42    23    39    1
    43    24    25   ar
    44    24    52   ar
    45    24    59    1
    46    25    26   ar
    47    25    58    1
    48    26    27   ar
    49    27    28   ar
    50    27    62    1
    51    28    52   ar
    52    28    60    1
    53    29    30   ar
    54    29    51   ar
    55    29    70    1
    56    30    31   ar
    57    30    69    1
    58    31    32   ar
    59    32    33   ar
    60    32    64    1
    61    33    51   ar
    62    33    63    1
    63    34    35   ar
    64    34    50   ar
    65    34    56    1
    66    35    36   ar
    67    35    57    1
    68    36    37   ar
    69    37    38   ar
    70    37    55    1
    71    38    50   ar
    72    38    54    1
    73    39    40    1
    74    39    41    1
    75    40    65    1
    76    41    66    1
    77    50    53    1
    78    51    67    1
    79    52    61    1
    80    67    68    1
