# 151c_C4_TD
# Created by GaussView 6.0.16
#

#
#

@<TRIPOS>MOLECULE
Molecule Name
81 88
SMALL
NO_CHARGES


@<TRIPOS>ATOM
1 C1     2.6587    -2.8454    -0.0756 C
2 C2     0.2369     1.4466    -0.0910 C
3 C3    -3.9535    -1.0862     0.0266 C
4 C4    -0.5899    -4.4206    -0.2065 C
5 C5     0.1597    -5.5289     0.2424 C
6 C6     1.5007    -5.1429     0.3172 C
7 C7     1.5996    -3.7864    -0.0818 C
8 N8     0.3191    -3.4006    -0.4158 N
9 C9     2.4302    -1.4590    -0.1422 C
10 C10     3.3637    -0.4073    -0.4080 C
11 C11     2.6871     0.7889    -0.4274 C
12 C12     1.3014     0.5350    -0.1659 C
13 N13     1.1917    -0.8341    -0.0191 N
14 C14    -1.1394     1.1140     0.0201 C
15 C15    -2.2130     2.0914     0.1376 C
16 C16    -3.3819     1.3950     0.1643 C
17 C17    -3.0356    -0.0127     0.0713 C
18 N18    -1.6612    -0.1452    -0.0023 N
19 C19    -3.5413    -2.4301    -0.1271 C
20 C20    -4.1956    -3.6969    -0.0648 C
21 C21    -3.2188    -4.6870    -0.1211 C
22 C22    -1.9552    -4.0439    -0.2247 C
23 N23    -2.2109    -2.7011    -0.2650 N
24 C24     0.6027     2.8859    -0.1699 C
25 C25     1.4204     3.5041     0.7798 C
26 C26     1.7790     4.8449     0.7151 C
27 C27     0.5212     5.0485    -1.2866 C
28 C28     0.1711     3.7135    -1.2145 C
29 H29    -0.2553    -6.4769     0.5563 H
30 H30     2.3212    -5.7405     0.6891 H
31 H31     0.1396    -2.6258    -1.0408 H
32 H32     4.4141    -0.5605    -0.6111 H
33 H33     3.1030     1.7625    -0.6412 H
34 H34     0.3729    -1.2395     0.4139 H
35 H35    -2.0877     3.1631     0.1992 H
36 H36    -4.3830     1.7991     0.2241 H
37 H37    -5.2615    -3.8497     0.0306 H
38 H38    -3.3770    -5.7564    -0.0958 H
39 H39    -1.5621    -1.9074    -0.1941 H
40 C40     1.3451     5.6752    -0.3313 C
41 F41     1.8877     2.7933     1.8220 F
42 F42     2.5700     5.3351     1.6990 F
43 F43    -0.5997     3.2113    -2.1952 F
44 F44     0.0879     5.7954    -2.3310 F
45 N45     1.6038     7.0205    -0.4543 N
46 H46     1.3106     7.3864    -1.3529 H
47 C47     2.7821     7.7088     0.1006 C
48 H48     2.7714     7.5564     1.1826 H
49 C49     4.0976     7.1426    -0.4631 C
50 H50     4.1001     6.0569    -0.3116 H
51 H51     4.1152     7.3102    -1.5490 H
52 C52     5.3503     7.7353     0.1843 C
53 H53     5.3268     7.6091     1.2739 H
54 H54     5.4570     8.8046    -0.0280 H
55 C55     2.6052     9.1991    -0.1836 C
56 H56     3.3998     9.7838     0.2876 H
57 H57     2.6361     9.3985    -1.2633 H
58 H58     1.6446     9.5538     0.2039 H
59 C59     4.0455    -3.3455     0.0224 C
60 C60     4.5319    -4.3314    -0.8485 C
61 C61     4.9381    -2.8856     1.0016 C
62 C62     5.8256    -4.8319    -0.7567 C
63 C63     6.2402    -3.3628     1.1013 C
64 C64     6.6859    -4.3437     0.2214 C
65 C65    -5.4064    -0.8223     0.1604 C
66 C66    -6.3105    -1.2063    -0.8371 C
67 C67    -5.9502    -0.2051     1.2932 C
68 C68    -7.6789    -0.9863    -0.7235 C
69 C69    -7.3139     0.0351     1.4233 C
70 C70    -8.1829    -0.3599     0.4115 C
71 F71     7.9331    -4.8133     0.3150 F
72 F72     6.2525    -5.7667    -1.6151 F
73 F73     3.7509    -4.8137    -1.8263 F
74 F74     7.0596    -2.8997     2.0534 F
75 F75     4.5490    -1.9651     1.8951 F
76 F76    -7.7966     0.6279     2.5228 F
77 F77    -9.4957    -0.1389     0.5294 F
78 F78    -8.5110    -1.3629    -1.7030 F
79 F79    -5.8679    -1.8009    -1.9551 F
80 F80    -5.1546     0.1700     2.3053 F
81 H81     6.2523     7.2356    -0.1864 H
@<TRIPOS>BOND
1 1 7 Ar
2 1 9 Ar
3 1 59 1
4 2 12 Ar
5 2 14 Ar
6 2 24 1
7 3 17 Ar
8 3 19 Ar
9 3 65 1
10 4 5 Ar
11 4 8 1
12 4 22 Ar
13 5 6 Ar
14 5 29 1
15 6 7 Ar
16 6 30 1
17 7 8 Ar
18 8 31 1
19 9 10 Ar
20 9 13 1
21 10 11 2
22 10 32 1
23 11 12 Ar
24 11 33 1
25 12 13 Ar
26 13 34 1
27 14 15 1
28 14 18 Ar
29 15 16 2
30 15 35 1
31 16 17 1
32 16 36 1
33 17 18 1
34 19 20 Ar
35 19 23 Ar
36 20 21 Ar
37 20 37 1
38 21 22 Ar
39 21 38 1
40 22 23 Ar
41 23 39 1
42 24 25 Ar
43 24 28 Ar
44 25 26 Ar
45 25 41 1
46 26 40 Ar
47 26 42 1
48 27 28 2
49 27 40 Ar
50 27 44 1
51 28 43 1
52 40 45 Ar
53 45 46 1
54 45 47 1
55 47 48 1
56 47 49 1
57 47 55 1
58 49 50 1
59 49 51 1
60 49 52 1
61 52 53 1
62 52 54 1
63 52 81 1
64 55 56 1
65 55 57 1
66 55 58 1
67 59 60 Ar
68 59 61 Ar
69 60 62 Ar
70 60 73 1
71 61 63 Ar
72 61 75 1
73 62 64 Ar
74 62 72 1
75 63 64 Ar
76 63 74 1
77 64 71 1
78 65 66 Ar
79 65 67 Ar
80 66 68 Ar
81 66 79 1
82 67 69 Ar
83 67 80 1
84 68 70 Ar
85 68 78 1
86 69 70 Ar
87 69 76 1
88 70 77 1
