@<TRIPOS>MOLECULE
F10P_N3_TD
 77 87 0 0 0
SMALL
GASTEIGER

@<TRIPOS>ATOM
      1 C          -3.4120   -1.0770    0.0094 C.3     1  UNL1        0.1028
      2 C           0.0019    2.4466   -0.0582 C.3     1  UNL1        0.0971
      3 C           3.2609   -1.2222    0.0059 C.3     1  UNL1        0.1028
      4 C          -0.8281   -3.4581   -0.5581 C.ar    1  UNL1        0.0768
      5 C          -1.9233   -4.3573   -0.5912 C.ar    1  UNL1       -0.0340
      6 C          -3.0637   -3.6048   -0.3742 C.ar    1  UNL1       -0.0385
      7 C          -2.6688   -2.2383   -0.2180 C.ar    1  UNL1        0.0484
      8 N          -1.3070   -2.1904   -0.3446 N.ar    1  UNL1       -0.2509
      9 C          -2.7908    0.1746    0.0705 C.ar    1  UNL1        0.0480
     10 C          -3.4643    1.4352    0.0872 C.ar    1  UNL1       -0.0388
     11 C          -2.5231    2.4234    0.0057 C.ar    1  UNL1       -0.0388
     12 C          -1.2368    1.8000   -0.0284 C.ar    1  UNL1        0.0478
     13 N          -1.4166    0.4230    0.0171 N.ar    1  UNL1       -0.2553
     14 C           1.2116    1.7470   -0.0314 C.ar    1  UNL1        0.0478
     15 C           2.5167    2.3142    0.1048 C.ar    1  UNL1       -0.0388
     16 C           3.4165    1.2862    0.1782 C.ar    1  UNL1       -0.0388
     17 C           2.6974    0.0558    0.0776 C.ar    1  UNL1        0.0480
     18 N           1.3367    0.3626   -0.0399 N.ar    1  UNL1       -0.2553
     19 C           2.4687   -2.3452   -0.2490 C.ar    1  UNL1        0.0484
     20 C           2.7997   -3.7282   -0.3819 C.ar    1  UNL1       -0.0385
     21 C           1.6260   -4.4317   -0.5965 C.ar    1  UNL1       -0.0340
     22 C           0.5732   -3.4861   -0.5851 C.ar    1  UNL1        0.0768
     23 N           1.1107   -2.2309   -0.4128 N.ar    1  UNL1       -0.2509
     24 C           6.7284   -1.1990    1.5623 C.ar    1  UNL1        0.1967
     25 C           5.3594   -1.0368    1.3796 C.ar    1  UNL1        0.1687
     26 C           4.7219   -1.3876    0.1842 C.ar    1  UNL1        0.0481
     27 C           5.5293   -1.9175   -0.8278 C.ar    1  UNL1        0.1687
     28 C           6.8979   -2.1010   -0.6627 C.ar    1  UNL1        0.1967
     29 C          -0.4241    6.0769    0.9776 C.ar    1  UNL1       -0.0332
     30 C          -0.4797    4.6878    0.9877 C.ar    1  UNL1       -0.0552
     31 C           0.0451    3.9344   -0.0740 C.ar    1  UNL1       -0.0280
     32 C           0.6313    4.6186   -1.1496 C.ar    1  UNL1       -0.0552
     33 C           0.6970    6.0080   -1.1710 C.ar    1  UNL1       -0.0332
     34 C          -7.0700   -1.7687   -0.7717 C.ar    1  UNL1        0.1967
     35 C          -5.6878   -1.6692   -0.8914 C.ar    1  UNL1        0.1687
     36 C          -4.8857   -1.1661    0.1390 C.ar    1  UNL1        0.0481
     37 C          -5.5433   -0.7564    1.3046 C.ar    1  UNL1        0.1687
     38 C          -6.9249   -0.8346    1.4410 C.ar    1  UNL1        0.1967
     39 P          -0.0729   -0.8423   -0.1792 P.3     1  UNL1        0.3022
     40 O          -0.0621   -1.1539    1.4855 O.3     1  UNL1       -0.2961
     41 O          -0.2035   -0.5126   -1.8361 O.3     1  UNL1       -0.2961
     42 H          -1.8589   -5.4249   -0.7496 H       1  UNL1        0.0639
     43 H          -4.0814   -3.9650   -0.3257 H       1  UNL1        0.0636
     44 H          -4.5378    1.5544    0.1140 H       1  UNL1        0.0636
     45 H          -2.6891    3.4896   -0.0294 H       1  UNL1        0.0636
     46 H           2.7208    3.3731    0.1559 H       1  UNL1        0.0636
     47 H           4.4906    1.3610    0.2686 H       1  UNL1        0.0636
     48 H           3.7982   -4.1359   -0.3136 H       1  UNL1        0.0636
     49 H           1.5138   -5.4994   -0.7258 H       1  UNL1        0.0639
     50 C           0.1547   -0.1598    2.4722 C.3     1  UNL1        0.0481
     51 H           1.1936    0.1902    2.4853 H       1  UNL1        0.0530
     52 H          -0.5139    0.7002    2.3508 H       1  UNL1        0.0530
     53 H          -0.0660   -0.6338    3.4333 H       1  UNL1        0.0530
     54 C           0.8393   -0.7376   -2.7696 C.3     1  UNL1        0.0481
     55 H           0.9805   -1.8032   -2.9837 H       1  UNL1        0.0530
     56 H           0.5349   -0.2325   -3.6916 H       1  UNL1        0.0530
     57 H           1.7944   -0.3112   -2.4410 H       1  UNL1        0.0530
     58 C          -7.6916   -1.3463    0.3989 C.ar    1  UNL1        0.1991
     59 C           0.1670    6.7414   -0.1021 C.ar    1  UNL1        0.1002
     60 C           7.5004   -1.7376    0.5376 C.ar    1  UNL1        0.1991
     61 N           0.1867    8.1584   -0.0281 N.2     1  UNL1       -0.0720
     62 N           1.1552    9.4782   -1.7449 N.2     1  UNL1        0.0682
     63 N           0.7076    8.7842   -0.9582 N.2     1  UNL1       -0.1616
     64 F          -9.0194   -1.4309    0.5221 F       1  UNL1       -0.1993
     65 F          -7.5195   -0.4330    2.5714 F       1  UNL1       -0.1993
     66 F          -4.8404   -0.2697    2.3375 F       1  UNL1       -0.2020
     67 F          -7.8050   -2.2530   -1.7805 F       1  UNL1       -0.1993
     68 F          -5.1323   -2.0690   -2.0441 F       1  UNL1       -0.2020
     69 F           4.6484   -0.5282    2.3965 F       1  UNL1       -0.2020
     70 F           7.3045   -0.8546    2.7205 F       1  UNL1       -0.1993
     71 F           7.6396   -2.6088   -1.6549 F       1  UNL1       -0.1993
     72 F           8.8155   -1.9028    0.7050 F       1  UNL1       -0.1993
     73 F           4.9901   -2.2607   -2.0074 F       1  UNL1       -0.2020
     74 H          -0.8232    6.6592    1.8015 H       1  UNL1        0.0640
     75 H           1.1500    6.5170   -2.0169 H       1  UNL1        0.0640
     76 H          -0.9238    4.1760    1.8356 H       1  UNL1        0.0621
     77 H           1.0340    4.0522   -1.9836 H       1  UNL1        0.0621
@<TRIPOS>BOND
     1     1     7    1
     2     1     9    1
     3     1    36    1
     4     2    12    1
     5     2    14    1
     6     2    31    1
     7     3    17    1
     8     3    19    1
     9     3    26    1
    10     4     5   ar
    11     4     8   ar
    12     4    22    1
    13     5     6   ar
    14     5    42    1
    15     6     7   ar
    16     6    43    1
    17     7     8   ar
    18     8    39    1
    19     9    10   ar
    20     9    13   ar
    21    10    11   ar
    22    10    44    1
    23    11    12   ar
    24    11    45    1
    25    12    13   ar
    26    13    39    1
    27    14    15   ar
    28    14    18   ar
    29    15    16   ar
    30    15    46    1
    31    16    17   ar
    32    16    47    1
    33    17    18   ar
    34    18    39    1
    35    19    20   ar
    36    19    23   ar
    37    20    21   ar
    38    20    48    1
    39    21    22   ar
    40    21    49    1
    41    22    23   ar
    42    23    39    1
    43    24    25   ar
    44    24    60   ar
    45    24    70    1
    46    25    26   ar
    47    25    69    1
    48    26    27   ar
    49    27    28   ar
    50    27    73    1
    51    28    60   ar
    52    28    71    1
    53    29    30   ar
    54    29    59   ar
    55    29    74    1
    56    30    31   ar
    57    30    76    1
    58    31    32   ar
    59    32    33   ar
    60    32    77    1
    61    33    59   ar
    62    33    75    1
    63    34    35   ar
    64    34    58   ar
    65    34    67    1
    66    35    36   ar
    67    35    68    1
    68    36    37   ar
    69    37    38   ar
    70    37    66    1
    71    38    58   ar
    72    38    65    1
    73    39    40    1
    74    39    41    1
    75    40    50    1
    76    41    54    1
    77    50    51    1
    78    50    52    1
    79    50    53    1
    80    54    55    1
    81    54    56    1
    82    54    57    1
    83    58    64    1
    84    59    61    1
    85    60    72    1
    86    61    63    2
    87    62    63    2
