@<TRIPOS>MOLECULE
F10P_OCH3_4_COOH_TD
 78 88 0 0 0
SMALL
GASTEIGER

@<TRIPOS>ATOM
      1 C          -3.3816   -1.1831    0.0419 C.3     1  UNL1        0.1028
      2 C          -0.0534    2.4191   -0.1393 C.3     1  UNL1        0.0971
      3 C           3.3345   -1.1212    0.0082 C.3     1  UNL1        0.1028
      4 C          -0.7111   -3.5312    0.0656 C.ar    1  UNL1        0.0768
      5 C          -1.7789   -4.4617    0.1319 C.ar    1  UNL1       -0.0340
      6 C          -2.9491   -3.7242    0.1338 C.ar    1  UNL1       -0.0385
      7 C          -2.5978   -2.3387    0.0666 C.ar    1  UNL1        0.0484
      8 N          -1.2319   -2.2627    0.0288 N.ar    1  UNL1       -0.2509
      9 C          -2.7927    0.0824   -0.0167 C.ar    1  UNL1        0.0480
     10 C          -3.4952    1.3248   -0.1044 C.ar    1  UNL1       -0.0388
     11 C          -2.5743    2.3315   -0.1622 C.ar    1  UNL1       -0.0388
     12 C          -1.2733    1.7370   -0.1020 C.ar    1  UNL1        0.0478
     13 N          -1.4248    0.3621   -0.0227 N.ar    1  UNL1       -0.2553
     14 C           1.1805    1.7658   -0.1125 C.ar    1  UNL1        0.0478
     15 C           2.4703    2.3865   -0.1042 C.ar    1  UNL1       -0.0388
     16 C           3.4113    1.3968   -0.0609 C.ar    1  UNL1       -0.0388
     17 C           2.7319    0.1387   -0.0310 C.ar    1  UNL1        0.0480
     18 N           1.3559    0.3894   -0.0603 N.ar    1  UNL1       -0.2553
     19 C           2.5633   -2.2861    0.0171 C.ar    1  UNL1        0.0484
     20 C           2.9337   -3.6611    0.0701 C.ar    1  UNL1       -0.0385
     21 C           1.7735   -4.4206    0.0873 C.ar    1  UNL1       -0.0340
     22 C           0.6893   -3.5160    0.0464 C.ar    1  UNL1        0.0768
     23 N           1.1883   -2.2290   -0.0021 N.ar    1  UNL1       -0.2509
     24 C           6.9094   -0.8552    1.2633 C.ar    1  UNL1        0.1967
     25 C           5.5247   -0.7561    1.1828 C.ar    1  UNL1        0.1687
     26 C           4.8104   -1.2276    0.0767 C.ar    1  UNL1        0.0481
     27 C           5.5502   -1.8229   -0.9489 C.ar    1  UNL1        0.1687
     28 C           6.9343   -1.9451   -0.8849 C.ar    1  UNL1        0.1967
     29 C          -0.6489    6.0584    0.7564 C.ar    1  UNL1       -0.0475
     30 C          -0.6316    4.6690    0.8235 C.ar    1  UNL1       -0.0565
     31 C          -0.0691    3.9068   -0.2123 C.ar    1  UNL1       -0.0281
     32 C           0.4794    4.5731   -1.3205 C.ar    1  UNL1       -0.0565
     33 C           0.4684    5.9606   -1.3894 C.ar    1  UNL1       -0.0475
     34 C          -6.9371   -2.1109   -0.9269 C.ar    1  UNL1        0.1967
     35 C          -5.5539   -1.9670   -0.9485 C.ar    1  UNL1        0.1687
     36 C          -4.8586   -1.3082    0.0714 C.ar    1  UNL1        0.0481
     37 C          -5.6229   -0.7924    1.1239 C.ar    1  UNL1        0.1687
     38 C          -7.0079   -0.9134    1.1595 C.ar    1  UNL1        0.1967
     39 P          -0.0371   -0.8597   -0.0145 P.3     1  UNL1        0.3022
     40 O          -0.1184   -0.7308    1.6715 O.3     1  UNL1       -0.2961
     41 O          -0.1593   -0.8014   -1.7018 O.3     1  UNL1       -0.2961
     42 H          -1.6774   -5.5374    0.1724 H       1  UNL1        0.0639
     43 H          -3.9592   -4.1058    0.1820 H       1  UNL1        0.0636
     44 H          -4.5708    1.4171   -0.1410 H       1  UNL1        0.0636
     45 H          -2.7611    3.3910   -0.2488 H       1  UNL1        0.0636
     46 H           2.6379    3.4527   -0.1233 H       1  UNL1        0.0636
     47 H           4.4855    1.5124   -0.0574 H       1  UNL1        0.0636
     48 H           3.9503   -4.0273    0.0979 H       1  UNL1        0.0636
     49 H           1.6939   -5.4982    0.1267 H       1  UNL1        0.0639
     50 C          -7.6673   -1.5790    0.1310 C.ar    1  UNL1        0.1991
     51 C          -0.0965    6.7137   -0.3521 C.ar    1  UNL1        0.0589
     52 C           7.6159   -1.4555    0.2252 C.ar    1  UNL1        0.1991
     53 F          -8.9970   -1.7067    0.1592 F       1  UNL1       -0.1993
     54 F          -7.7076   -0.4075    2.1828 F       1  UNL1       -0.1993
     55 F          -5.0251   -0.1570    2.1415 F       1  UNL1       -0.2020
     56 F          -7.5696   -2.7457   -1.9216 F       1  UNL1       -0.1993
     57 F          -4.8889   -2.4792   -1.9936 F       1  UNL1       -0.2020
     58 F           4.8725   -0.1902    2.2099 F       1  UNL1       -0.2020
     59 F           7.5638   -0.3932    2.3355 F       1  UNL1       -0.1993
     60 F           7.6139   -2.5169   -1.8863 F       1  UNL1       -0.1993
     61 F           8.9457   -1.5621    0.2954 F       1  UNL1       -0.1993
     62 F           4.9257   -2.2932   -2.0388 F       1  UNL1       -0.2020
     63 H          -1.0809    6.6357    1.5657 H       1  UNL1        0.0626
     64 H           0.8866    6.4777   -2.2463 H       1  UNL1        0.0626
     65 H           0.9046    3.9924   -2.1329 H       1  UNL1        0.0621
     66 H          -1.0473    4.1637    1.6892 H       1  UNL1        0.0621
     67 C          -0.0820    8.1920   -0.4740 C.2     1  UNL1        0.3368
     68 O           0.4016    8.8081   -1.4049 O.2     1  UNL1       -0.2451
     69 O          -0.6713    8.8176    0.5726 O.3     1  UNL1       -0.4771
     70 H          -0.6020    9.7740    0.3889 H       1  UNL1        0.2954
     71 C           0.9216   -1.1041    2.5598 C.3     1  UNL1        0.0481
     72 H           1.8613   -0.5803    2.3480 H       1  UNL1        0.0530
     73 H           0.5829   -0.8105    3.5579 H       1  UNL1        0.0530
     74 H           1.1031   -2.1855    2.5582 H       1  UNL1        0.0530
     75 C           0.8694   -1.2041   -2.5898 C.3     1  UNL1        0.0481
     76 H           1.0520   -2.2844   -2.5555 H       1  UNL1        0.0530
     77 H           0.5210   -0.9407   -3.5930 H       1  UNL1        0.0530
     78 H           1.8115   -0.6752   -2.4027 H       1  UNL1        0.0530
@<TRIPOS>BOND
     1     1     7    1
     2     1     9    1
     3     1    36    1
     4     2    12    1
     5     2    14    1
     6     2    31    1
     7     3    17    1
     8     3    19    1
     9     3    26    1
    10     4     5   ar
    11     4     8   ar
    12     4    22    1
    13     5     6   ar
    14     5    42    1
    15     6     7   ar
    16     6    43    1
    17     7     8   ar
    18     8    39    1
    19     9    10   ar
    20     9    13   ar
    21    10    11   ar
    22    10    44    1
    23    11    12   ar
    24    11    45    1
    25    12    13   ar
    26    13    39    1
    27    14    15   ar
    28    14    18   ar
    29    15    16   ar
    30    15    46    1
    31    16    17   ar
    32    16    47    1
    33    17    18   ar
    34    18    39    1
    35    19    20   ar
    36    19    23   ar
    37    20    21   ar
    38    20    48    1
    39    21    22   ar
    40    21    49    1
    41    22    23   ar
    42    23    39    1
    43    24    25   ar
    44    24    52   ar
    45    24    59    1
    46    25    26   ar
    47    25    58    1
    48    26    27   ar
    49    27    28   ar
    50    27    62    1
    51    28    52   ar
    52    28    60    1
    53    29    30   ar
    54    29    51   ar
    55    29    63    1
    56    30    31   ar
    57    30    66    1
    58    31    32   ar
    59    32    33   ar
    60    32    65    1
    61    33    51   ar
    62    33    64    1
    63    34    35   ar
    64    34    50   ar
    65    34    56    1
    66    35    36   ar
    67    35    57    1
    68    36    37   ar
    69    37    38   ar
    70    37    55    1
    71    38    50   ar
    72    38    54    1
    73    39    40    1
    74    39    41    1
    75    40    71    1
    76    41    75    1
    77    50    53    1
    78    51    67    1
    79    52    61    1
    80    67    68    2
    81    67    69    1
    82    69    70    1
    83    71    72    1
    84    71    73    1
    85    71    74    1
    86    75    76    1
    87    75    77    1
    88    75    78    1
