@<TRIPOS>MOLECULE
F14_4_NHCH2CH2OH_TD
 94 101 0 0 0
SMALL
GASTEIGER

@<TRIPOS>ATOM
      1 C           3.3919   -1.2979   -0.0691 C.3     1  UNL1        0.1011
      2 C          -0.0405    2.2145   -0.0290 C.3     1  UNL1        0.0954
      3 C          -3.4608   -1.3513   -0.1333 C.3     1  UNL1        0.1014
      4 C           0.7112   -3.6601   -0.3041 C.ar    1  UNL1        0.0631
      5 C           1.7777   -4.5988   -0.2550 C.ar    1  UNL1       -0.0347
      6 C           2.9720   -3.8846   -0.2118 C.ar    1  UNL1       -0.0392
      7 C           2.6533   -2.4933   -0.2182 C.ar    1  UNL1        0.0346
      8 N           1.2923   -2.4226   -0.3092 N.ar    1  UNL1       -0.3557
      9 C           2.7661   -0.0308    0.0083 C.2     1  UNL1        0.0489
     10 C           3.4459    1.2287    0.2442 C.2     1  UNL1       -0.0400
     11 C           2.4877    2.1970    0.2688 C.2     1  UNL1       -0.0400
     12 C           1.2092    1.5368    0.0399 C.2     1  UNL1        0.0487
     13 N           1.4054    0.1920   -0.0955 N.pl3   1  UNL1       -0.2209
     14 C          -1.2974    1.5902   -0.1287 C.ar    1  UNL1        0.0341
     15 C          -2.5734    2.1824   -0.4031 C.ar    1  UNL1       -0.0396
     16 C          -3.5250    1.1893   -0.4237 C.ar    1  UNL1       -0.0396
     17 C          -2.8867   -0.0653   -0.1717 C.ar    1  UNL1        0.0344
     18 N          -1.5350    0.2316   -0.0193 N.ar    1  UNL1       -0.3596
     19 C          -2.6698   -2.5264   -0.1505 C.ar    1  UNL1        0.0347
     20 C          -2.9132   -3.8719    0.2229 C.ar    1  UNL1       -0.0392
     21 C          -1.7096   -4.5789    0.1414 C.ar    1  UNL1       -0.0347
     22 C          -0.7048   -3.6859   -0.2868 C.ar    1  UNL1        0.0631
     23 N          -1.3303   -2.4666   -0.4748 N.ar    1  UNL1       -0.3557
     24 C          -4.9271   -1.4845   -0.0456 C.ar    1  UNL1        0.0480
     25 C          -5.6586   -2.3054   -0.9191 C.ar    1  UNL1        0.1676
     26 C          -7.0302   -2.4455   -0.8242 C.ar    1  UNL1        0.1824
     27 C          -7.7988   -1.7746    0.1454 C.ar    1  UNL1        0.1043
     28 C          -7.0703   -0.9574    1.0238 C.ar    1  UNL1        0.1824
     29 C          -5.6912   -0.8255    0.9263 C.ar    1  UNL1        0.1676
     30 F          -5.0298   -2.9686   -1.9057 F       1  UNL1       -0.2020
     31 F          -7.6824   -3.2311   -1.7133 F       1  UNL1       -0.2004
     32 F          -7.7017   -0.2883    2.0168 F       1  UNL1       -0.2004
     33 F          -5.0886   -0.0425    1.8390 F       1  UNL1       -0.2020
     34 C          -0.0412    3.7019   -0.0178 C.ar    1  UNL1       -0.0282
     35 C          -0.7863    4.4228    0.9336 C.ar    1  UNL1       -0.0555
     36 C          -0.8004    5.8093    0.9442 C.ar    1  UNL1       -0.0406
     37 C          -0.0655    6.5486   -0.0055 C.ar    1  UNL1        0.0272
     38 C           0.6884    5.8353   -0.9564 C.ar    1  UNL1       -0.0406
     39 C           0.6906    4.4433   -0.9572 C.ar    1  UNL1       -0.0555
     40 C           4.8669   -1.3959    0.0405 C.ar    1  UNL1        0.0479
     41 C           5.7276   -0.7957   -0.8830 C.ar    1  UNL1        0.1676
     42 C           7.1112   -0.8781   -0.7896 C.ar    1  UNL1        0.1824
     43 C           7.7391   -1.6057    0.2326 C.ar    1  UNL1        0.1043
     44 C           6.8718   -2.2178    1.1545 C.ar    1  UNL1        0.1824
     45 C           5.4950   -2.1098    1.0687 C.ar    1  UNL1        0.1676
     46 F           5.2209   -0.0962   -1.9138 F       1  UNL1       -0.2020
     47 F           7.8514   -0.2380   -1.7247 F       1  UNL1       -0.2004
     48 F           7.4214   -2.9336    2.1639 F       1  UNL1       -0.2004
     49 F           4.7566   -2.7219    2.0122 F       1  UNL1       -0.2020
     50 H           1.6649   -5.6744   -0.2620 H       1  UNL1        0.0639
     51 H           4.5096    1.3545    0.3927 H       1  UNL1        0.0634
     52 H           2.6261    3.2535    0.4465 H       1  UNL1        0.0634
     53 H          -2.7282    3.2325   -0.6006 H       1  UNL1        0.0636
     54 H          -4.5768    1.3028   -0.6449 H       1  UNL1        0.0636
     55 H          -3.8583   -4.2532    0.5836 H       1  UNL1        0.0636
     56 H           3.9687   -4.2998   -0.1654 H       1  UNL1        0.0636
     57 H          -1.5454   -5.6060    0.4382 H       1  UNL1        0.0639
     58 H           1.2675    6.3657   -1.7043 H       1  UNL1        0.0636
     59 H           1.2691    3.9171   -1.7106 H       1  UNL1        0.0621
     60 H          -1.3492    3.8790    1.6867 H       1  UNL1        0.0621
     61 H          -1.3795    6.3414    1.6957 H       1  UNL1        0.0636
     62 N          -0.1381    7.9327    0.0030 N.pl3   1  UNL1       -0.3416
     63 H          -0.3945    8.3307    0.8998 H       1  UNL1        0.1461
     64 C           0.8369    8.7561   -0.6893 C.3     1  UNL1        0.0323
     65 H           1.8680    8.5471   -0.3586 H       1  UNL1        0.0484
     66 H           0.7912    8.5661   -1.7679 H       1  UNL1        0.0484
     67 C           0.5107   10.2192   -0.4475 C.3     1  UNL1        0.0596
     68 H           1.2458   10.8494   -0.9693 H       1  UNL1        0.0573
     69 H          -0.4867   10.4421   -0.8536 H       1  UNL1        0.0573
     70 O           0.5475   10.4386    0.9636 O.3     1  UNL1       -0.3935
     71 H           0.1759   11.3169    1.1386 H       1  UNL1        0.2095
     72 N           9.1044   -1.6997    0.4155 N.pl3   1  UNL1       -0.3371
     73 H           9.3458   -2.3827    1.1271 H       1  UNL1        0.1463
     74 C          10.0419   -1.7814   -0.7058 C.3     1  UNL1        0.0325
     75 H          10.0269   -0.8540   -1.2799 H       1  UNL1        0.0484
     76 H           9.7868   -2.6080   -1.3865 H       1  UNL1        0.0484
     77 C          11.4341   -1.9986   -0.1431 C.3     1  UNL1        0.0596
     78 H          12.1537   -2.0742   -0.9714 H       1  UNL1        0.0573
     79 H          11.7150   -1.1391    0.4822 H       1  UNL1        0.0573
     80 O          11.3984   -3.2007    0.6278 O.3     1  UNL1       -0.3935
     81 H          12.2064   -3.2388    1.1622 H       1  UNL1        0.2095
     82 N          -9.1553   -2.0015    0.2024 N.pl3   1  UNL1       -0.3371
     83 H          -9.5108   -2.4457   -0.6382 H       1  UNL1        0.1463
     84 C         -10.1126   -1.0278    0.7256 C.3     1  UNL1        0.0325
     85 H         -10.0137   -0.0532    0.2248 H       1  UNL1        0.0484
     86 H          -9.9530   -0.8760    1.7944 H       1  UNL1        0.0484
     87 C         -11.5103   -1.5751    0.5024 C.3     1  UNL1        0.0596
     88 H         -12.2479   -0.8503    0.8761 H       1  UNL1        0.0573
     89 H         -11.6311   -2.5130    1.0637 H       1  UNL1        0.0573
     90 O         -11.6595   -1.7964   -0.9006 O.3     1  UNL1       -0.3935
     91 H         -12.4614   -2.3237   -1.0384 H       1  UNL1        0.2095
     92 H          -0.8437   -0.3836    0.3865 H       1  UNL1        0.1653
     93 H          -0.9623   -1.7512   -1.0881 H       1  UNL1        0.1657
     94 H           0.8638   -1.4910   -0.2353 H       1  UNL1        0.1657
@<TRIPOS>BOND
     1     1     7    1
     2     1     9    1
     3     1    40    1
     4     2    12    1
     5     2    14    1
     6     2    34    1
     7     3    17    1
     8     3    19    1
     9     3    24    1
    10     4     5   ar
    11     4     8   ar
    12     4    22    1
    13     5     6   ar
    14     5    50    1
    15     6     7   ar
    16     6    56    1
    17     7     8   ar
    18     8    94    1
    19     9    10    2
    20     9    13    1
    21    10    11    1
    22    10    51    1
    23    11    12    2
    24    11    52    1
    25    12    13    1
    26    14    15   ar
    27    14    18   ar
    28    15    16   ar
    29    15    53    1
    30    16    17   ar
    31    16    54    1
    32    17    18   ar
    33    18    92    1
    34    19    20   ar
    35    19    23   ar
    36    20    21   ar
    37    20    55    1
    38    21    22   ar
    39    21    57    1
    40    22    23   ar
    41    23    93    1
    42    24    25   ar
    43    24    29   ar
    44    25    26   ar
    45    25    30    1
    46    26    27   ar
    47    26    31    1
    48    27    28   ar
    49    27    82    1
    50    28    29   ar
    51    28    32    1
    52    29    33    1
    53    34    35   ar
    54    34    39   ar
    55    35    36   ar
    56    35    60    1
    57    36    37   ar
    58    36    61    1
    59    37    38   ar
    60    37    62    1
    61    38    39   ar
    62    38    58    1
    63    39    59    1
    64    40    41   ar
    65    40    45   ar
    66    41    42   ar
    67    41    46    1
    68    42    43   ar
    69    42    47    1
    70    43    44   ar
    71    43    72    1
    72    44    45   ar
    73    44    48    1
    74    45    49    1
    75    62    63    1
    76    62    64    1
    77    64    65    1
    78    64    66    1
    79    64    67    1
    80    67    68    1
    81    67    69    1
    82    67    70    1
    83    70    71    1
    84    72    73    1
    85    72    74    1
    86    74    75    1
    87    74    76    1
    88    74    77    1
    89    77    78    1
    90    77    79    1
    91    77    80    1
    92    80    81    1
    93    82    83    1
    94    82    84    1
    95    84    85    1
    96    84    86    1
    97    84    87    1
    98    87    88    1
    99    87    89    1
   100    87    90    1
   101    90    91    1
