@<TRIPOS>MOLECULE
F14Ga_4_NHCH2CH2OH_TD
 92 102 0 0 0
SMALL
GASTEIGER

@<TRIPOS>ATOM
      1 C           3.3674   -1.2028    0.0588 C.2     1  UNL1        0.0000
      2 C          -0.0799    2.3420    0.0372 C.2     1  UNL1        0.0000
      3 C          -3.3649   -1.3541    0.0328 C.2     1  UNL1        0.0000
      4 C           0.7691   -3.6781    0.0656 C.ar    1  UNL1        0.0000
      5 C           1.8809   -4.5686    0.0508 C.ar    1  UNL1        0.0000
      6 C           3.0359   -3.7931    0.0476 C.ar    1  UNL1        0.0000
      7 C           2.6396   -2.4141    0.0637 C.ar    1  UNL1        0.0000
      8 N           1.2714   -2.3994    0.0775 N.ar    1  UNL1        0.0000
      9 C           2.7644    0.0771    0.0496 C.3     1  UNL1        0.0000
     10 C           3.4304    1.3472    0.1089 C.2     1  UNL1        0.0000
     11 C           2.4798    2.3386    0.1088 C.2     1  UNL1        0.0000
     12 C           1.1880    1.7160    0.0408 C.2     1  UNL1        0.0000
     13 N           1.3929    0.3414    0.0100 N.pl3   1  UNL1        0.0000
     14 C          -1.3184    1.6590    0.0341 C.ar    1  UNL1        0.0000
     15 C          -2.6364    2.2232   -0.0413 C.ar    1  UNL1        0.0000
     16 C          -3.5416    1.1902   -0.0391 C.ar    1  UNL1        0.0000
     17 C          -2.8199   -0.0484    0.0306 C.ar    1  UNL1        0.0000
     18 N          -1.4617    0.2771    0.0715 N.ar    1  UNL1        0.0000
     19 C          -2.5837   -2.5314    0.0403 C.ar    1  UNL1        0.0000
     20 C          -2.9183   -3.9262    0.0751 C.ar    1  UNL1        0.0000
     21 C          -1.7297   -4.6493    0.0787 C.ar    1  UNL1        0.0000
     22 C          -0.6587   -3.7104    0.0489 C.ar    1  UNL1        0.0000
     23 N          -1.2176   -2.4556    0.0222 N.ar    1  UNL1        0.0000
     24 C          -4.8413   -1.5010    0.0169 C.ar    1  UNL1        0.0000
     25 C          -5.5095   -2.1568   -1.0251 C.ar    1  UNL1        0.0000
     26 C          -6.8844   -2.3089   -1.0349 C.ar    1  UNL1        0.0000
     27 C          -7.7092   -1.8172   -0.0068 C.ar    1  UNL1        0.0000
     28 C          -7.0401   -1.1625    1.0389 C.ar    1  UNL1        0.0000
     29 C          -5.6584   -1.0151    1.0414 C.ar    1  UNL1        0.0000
     30 F          -4.8148   -2.6429   -2.0689 F       1  UNL1        0.0000
     31 F          -7.4785   -2.9325   -2.0792 F       1  UNL1        0.0000
     32 F          -7.7335   -0.6720    2.0927 F       1  UNL1        0.0000
     33 F          -5.1082   -0.3843    2.0944 F       1  UNL1        0.0000
     34 C          -0.1168    3.8302    0.0381 C.ar    1  UNL1        0.0000
     35 C          -0.7523    4.5411    1.0719 C.ar    1  UNL1        0.0000
     36 C          -0.7965    5.9274    1.0743 C.ar    1  UNL1        0.0000
     37 C          -0.2018    6.6739    0.0357 C.ar    1  UNL1        0.0000
     38 C           0.4465    5.9686   -0.9958 C.ar    1  UNL1        0.0000
     39 C           0.4782    4.5761   -0.9886 C.ar    1  UNL1        0.0000
     40 C           4.8491   -1.2841    0.0727 C.ar    1  UNL1        0.0000
     41 C           5.6409   -0.7802   -0.9630 C.ar    1  UNL1        0.0000
     42 C           7.0282   -0.8586   -0.9588 C.ar    1  UNL1        0.0000
     43 C           7.7271   -1.4825    0.0860 C.ar    1  UNL1        0.0000
     44 C           6.9279   -1.9974    1.1227 C.ar    1  UNL1        0.0000
     45 C           5.5482   -1.8957    1.1213 C.ar    1  UNL1        0.0000
     46 F           5.0604   -0.1824   -2.0190 F       1  UNL1        0.0000
     47 F           7.6998   -0.3170   -2.0016 F       1  UNL1        0.0000
     48 F           7.5505   -2.6103    2.1566 F       1  UNL1        0.0000
     49 F           4.8778   -2.4098    2.1674 F       1  UNL1        0.0000
     50 GA         -0.0060   -0.9587    0.0446 Ga      1  UNL1        0.0000
     51 H           1.8297   -5.6495    0.0376 H       1  UNL1        0.0000
     52 H           4.5013    1.4802    0.1680 H       1  UNL1        0.0000
     53 H           2.6507    3.4035    0.1649 H       1  UNL1        0.0000
     54 H          -2.8542    3.2792   -0.1035 H       1  UNL1        0.0000
     55 H          -4.6171    1.2742   -0.1030 H       1  UNL1        0.0000
     56 H          -3.9196   -4.3339    0.1005 H       1  UNL1        0.0000
     57 H           4.0541   -4.1569    0.0305 H       1  UNL1        0.0000
     58 H          -1.6303   -5.7265    0.1059 H       1  UNL1        0.0000
     59 H           0.9191    6.5048   -1.8115 H       1  UNL1        0.0000
     60 H           0.9707    4.0544   -1.8041 H       1  UNL1        0.0000
     61 H          -1.2075    3.9915    1.8907 H       1  UNL1        0.0000
     62 H          -1.2910    6.4538    1.8876 H       1  UNL1        0.0000
     63 N          -0.3056    8.0564    0.0434 N.pl3   1  UNL1        0.0000
     64 H          -0.4684    8.4570    0.9607 H       1  UNL1        0.0000
     65 C           0.5712    8.8935   -0.7560 C.3     1  UNL1        0.0000
     66 H           1.6359    8.7070   -0.5374 H       1  UNL1        0.0000
     67 H           0.4127    8.6948   -1.8224 H       1  UNL1        0.0000
     68 C           0.2425   10.3520   -0.4876 C.3     1  UNL1        0.0000
     69 H           0.9086   10.9935   -1.0832 H       1  UNL1        0.0000
     70 H          -0.7950   10.5530   -0.7922 H       1  UNL1        0.0000
     71 O           0.4161   10.5786    0.9110 O.3     1  UNL1        0.0000
     72 H           0.0438   11.4485    1.1228 H       1  UNL1        0.0000
     73 N           9.1001   -1.5665    0.1869 N.pl3   1  UNL1        0.0000
     74 H           9.3904   -2.2008    0.9247 H       1  UNL1        0.0000
     75 C           9.9739   -1.7025   -0.9787 C.3     1  UNL1        0.0000
     76 H           9.9386   -0.7982   -1.5884 H       1  UNL1        0.0000
     77 H           9.6756   -2.5522   -1.6115 H       1  UNL1        0.0000
     78 C          11.3921   -1.9137   -0.4801 C.3     1  UNL1        0.0000
     79 H          12.0656   -2.0354   -1.3408 H       1  UNL1        0.0000
     80 H          11.7152   -1.0313    0.0908 H       1  UNL1        0.0000
     81 O          11.3828   -3.0795    0.3434 O.3     1  UNL1        0.0000
     82 H          12.2182   -3.1101    0.8345 H       1  UNL1        0.0000
     83 N          -9.0676   -2.0493   -0.0621 N.pl3   1  UNL1        0.0000
     84 H          -9.3646   -2.3651   -0.9803 H       1  UNL1        0.0000
     85 C         -10.0526   -1.1288    0.5058 C.3     1  UNL1        0.0000
     86 H          -9.9139   -0.1044    0.1280 H       1  UNL1        0.0000
     87 H          -9.9659   -1.1026    1.5932 H       1  UNL1        0.0000
     88 C         -11.4356   -1.6282    0.1276 C.3     1  UNL1        0.0000
     89 H         -12.1925   -0.9354    0.5230 H       1  UNL1        0.0000
     90 H         -11.6036   -2.6178    0.5762 H       1  UNL1        0.0000
     91 O         -11.4862   -1.6987   -1.2971 O.3     1  UNL1        0.0000
     92 H         -12.2722   -2.2079   -1.5477 H       1  UNL1        0.0000
@<TRIPOS>BOND
     1     1     7    2
     2     1     9    1
     3     1    40    1
     4     2    12    2
     5     2    14    1
     6     2    34    1
     7     3    17    1
     8     3    19    2
     9     3    24    1
    10     4     5   ar
    11     4     8   ar
    12     4    22    2
    13     5     6   ar
    14     5    51    1
    15     6     7   ar
    16     6    57    1
    17     7     8   ar
    18     8    50    1
    19     9    10    1
    20     9    13    1
    21    10    11    2
    22    10    52    1
    23    11    12    1
    24    11    53    1
    25    12    13    1
    26    13    50    1
    27    14    15   ar
    28    14    18   ar
    29    15    16   ar
    30    15    54    1
    31    16    17   ar
    32    16    55    1
    33    17    18   ar
    34    18    50    1
    35    19    20   ar
    36    19    23   ar
    37    20    21   ar
    38    20    56    1
    39    21    22   ar
    40    21    58    1
    41    22    23   ar
    42    23    50    1
    43    24    25   ar
    44    24    29   ar
    45    25    26   ar
    46    25    30    1
    47    26    27   ar
    48    26    31    1
    49    27    28   ar
    50    27    83    1
    51    28    29   ar
    52    28    32    1
    53    29    33    1
    54    34    35   ar
    55    34    39   ar
    56    35    36   ar
    57    35    61    1
    58    36    37   ar
    59    36    62    1
    60    37    38   ar
    61    37    63    1
    62    38    39   ar
    63    38    59    1
    64    39    60    1
    65    40    41   ar
    66    40    45   ar
    67    41    42   ar
    68    41    46    1
    69    42    43   ar
    70    42    47    1
    71    43    44   ar
    72    43    73    1
    73    44    45   ar
    74    44    48    1
    75    45    49    1
    76    63    64    1
    77    63    65    1
    78    65    66    1
    79    65    67    1
    80    65    68    1
    81    68    69    1
    82    68    70    1
    83    68    71    1
    84    71    72    1
    85    73    74    1
    86    73    75    1
    87    75    76    1
    88    75    77    1
    89    75    78    1
    90    78    79    1
    91    78    80    1
    92    78    81    1
    93    81    82    1
    94    83    84    1
    95    83    85    1
    96    85    86    1
    97    85    87    1
    98    85    88    1
    99    88    89    1
   100    88    90    1
   101    88    91    1
   102    91    92    1
