@<TRIPOS>MOLECULE
F14Ga_N3_TD
 78 89 0 0 0
SMALL
GASTEIGER

@<TRIPOS>ATOM
      1 C          -3.3599   -1.3979   -0.5865 C.3     1  UNL1        0.0000
      2 C           0.0046    2.1744   -0.1465 C.3     1  UNL1        0.0000
      3 C           3.3632   -1.4160   -0.4305 C.3     1  UNL1        0.0000
      4 C          -0.7128   -3.7913   -0.8664 C.ar    1  UNL1        0.0000
      5 C          -1.7968   -4.6977   -1.0625 C.ar    1  UNL1        0.0000
      6 C          -2.9716   -3.9586   -0.9742 C.ar    1  UNL1        0.0000
      7 C          -2.6072   -2.5888   -0.7337 C.ar    1  UNL1        0.0000
      8 N          -1.2470   -2.5461   -0.6690 N.ar    1  UNL1        0.0000
      9 C          -2.7910   -0.1110   -0.4448 C.ar    1  UNL1        0.0000
     10 C          -3.4867    1.1479   -0.4159 C.ar    1  UNL1        0.0000
     11 C          -2.5554    2.1504   -0.3014 C.ar    1  UNL1        0.0000
     12 C          -1.2551    1.5379   -0.2473 C.ar    1  UNL1        0.0000
     13 N          -1.4328    0.1727   -0.3322 N.ar    1  UNL1        0.0000
     14 C           1.2629    1.5296   -0.1792 C.ar    1  UNL1        0.0000
     15 C           2.5684    2.1286   -0.0897 C.ar    1  UNL1        0.0000
     16 C           3.4979    1.1220   -0.1665 C.ar    1  UNL1        0.0000
     17 C           2.7976   -0.1270   -0.3101 C.ar    1  UNL1        0.0000
     18 N           1.4363    0.1662   -0.3027 N.ar    1  UNL1        0.0000
     19 C           2.6095   -2.6042   -0.6001 C.ar    1  UNL1        0.0000
     20 C           2.9796   -3.9681   -0.8610 C.ar    1  UNL1        0.0000
     21 C           1.8064   -4.7032   -1.0006 C.ar    1  UNL1        0.0000
     22 C           0.7181   -3.7989   -0.8199 C.ar    1  UNL1        0.0000
     23 N           1.2490   -2.5621   -0.5673 N.ar    1  UNL1        0.0000
     24 C           4.8394   -1.5546   -0.3552 C.ar    1  UNL1        0.0000
     25 C           5.4300   -2.2682    0.6932 C.ar    1  UNL1        0.0000
     26 C           6.8059   -2.4433    0.7881 C.ar    1  UNL1        0.0000
     27 C           7.6355   -1.8882   -0.1818 C.ar    1  UNL1        0.0000
     28 C           7.0817   -1.1663   -1.2345 C.ar    1  UNL1        0.0000
     29 C           5.7008   -1.0133   -1.3138 C.ar    1  UNL1        0.0000
     30 F           4.6620   -2.7959    1.6627 F       1  UNL1        0.0000
     31 F           7.3377   -3.1274    1.8096 F       1  UNL1        0.0000
     32 F           8.9602   -2.0451   -0.0999 F       1  UNL1        0.0000
     33 F           7.8788   -0.6363   -2.1706 F       1  UNL1        0.0000
     34 F           5.2053   -0.3244   -2.3511 F       1  UNL1        0.0000
     35 C          -0.0011    3.6551   -0.0160 C.ar    1  UNL1        0.0000
     36 C           0.5526    4.4885   -0.9933 C.ar    1  UNL1        0.0000
     37 C           0.5438    5.8719   -0.8773 C.ar    1  UNL1        0.0000
     38 C          -0.0448    6.5023    0.2260 C.ar    1  UNL1        0.0000
     39 C          -0.6068    5.6787    1.2101 C.ar    1  UNL1        0.0000
     40 C          -0.5749    4.2963    1.0878 C.ar    1  UNL1        0.0000
     41 F           1.1140    3.9591   -2.0904 F       1  UNL1        0.0000
     42 F           1.0958    6.6217   -1.8490 F       1  UNL1        0.0000
     43 F          -1.1722    6.2363    2.2900 F       1  UNL1        0.0000
     44 F          -1.1200    3.5695    2.0765 F       1  UNL1        0.0000
     45 C          -4.8402   -1.5043   -0.5445 C.ar    1  UNL1        0.0000
     46 C          -5.5490   -1.1603    0.6119 C.ar    1  UNL1        0.0000
     47 C          -6.9335   -1.2581    0.6900 C.ar    1  UNL1        0.0000
     48 C          -7.6510   -1.7245   -0.4077 C.ar    1  UNL1        0.0000
     49 C          -6.9770   -2.0845   -1.5704 C.ar    1  UNL1        0.0000
     50 C          -5.5914   -1.9691   -1.6280 C.ar    1  UNL1        0.0000
     51 F          -4.8901   -0.7280    1.7016 F       1  UNL1        0.0000
     52 F          -7.5779   -0.9212    1.8148 F       1  UNL1        0.0000
     53 F          -8.9820   -1.8279   -0.3435 F       1  UNL1        0.0000
     54 F          -7.6653   -2.5293   -2.6292 F       1  UNL1        0.0000
     55 F          -4.9826   -2.3153   -2.7710 F       1  UNL1        0.0000
     56 GA         -0.0057   -1.1271   -0.1452 Ga      1  UNL1        0.0000
     57 H          -1.7146   -5.7598   -1.2526 H       1  UNL1        0.0000
     58 H          -4.5574    1.2687   -0.5056 H       1  UNL1        0.0000
     59 H          -2.7483    3.2138   -0.2841 H       1  UNL1        0.0000
     60 H           2.7681    3.1853    0.0164 H       1  UNL1        0.0000
     61 H           4.5725    1.2338   -0.1327 H       1  UNL1        0.0000
     62 H           3.9903   -4.3413   -0.9607 H       1  UNL1        0.0000
     63 H          -3.9783   -4.3376   -1.0880 H       1  UNL1        0.0000
     64 H           1.7286   -5.7593   -1.2234 H       1  UNL1        0.0000
     65 C          -1.2153   -1.2350    2.6440 C.3     1  UNL1        0.0000
     66 C          -1.2928   -1.4079    4.0204 C.2     1  UNL1        0.0000
     67 C          -0.1350   -1.7427    4.7221 C.2     1  UNL1        0.0000
     68 C           1.0615   -1.8976    4.0222 C.2     1  UNL1        0.0000
     69 C           1.0613   -1.7121    2.6452 C.2     1  UNL1        0.0000
     70 N          -0.0582   -1.3851    1.9738 N.pl3   1  UNL1        0.0000
     71 H          -0.1648   -1.8827    5.7983 H       1  UNL1        0.0000
     72 H          -2.0870   -0.9741    2.0540 H       1  UNL1        0.0000
     73 H          -2.2439   -1.2796    4.5251 H       1  UNL1        0.0000
     74 H           1.9839   -2.1588    4.5290 H       1  UNL1        0.0000
     75 H           1.9649   -1.8291    2.0571 H       1  UNL1        0.0000
     76 N          -0.1197    7.8834    0.4418 N.2     1  UNL1        0.0000
     77 N           0.3198    8.6730   -0.4099 N.2     1  UNL1        0.0000
     78 N           0.6608    9.5400   -1.0624 N.2     1  UNL1        0.0000
@<TRIPOS>BOND
     1     1     7    1
     2     1     9    1
     3     1    45    1
     4     2    12    1
     5     2    14    1
     6     2    35    1
     7     3    17    1
     8     3    19    1
     9     3    24    1
    10     4     5   ar
    11     4     8   ar
    12     4    22    1
    13     5     6   ar
    14     5    57    1
    15     6     7   ar
    16     6    63    1
    17     7     8   ar
    18     8    56    1
    19     9    10   ar
    20     9    13   ar
    21    10    11   ar
    22    10    58    1
    23    11    12   ar
    24    11    59    1
    25    12    13   ar
    26    13    56    1
    27    14    15   ar
    28    14    18   ar
    29    15    16   ar
    30    15    60    1
    31    16    17   ar
    32    16    61    1
    33    17    18   ar
    34    18    56    1
    35    19    20   ar
    36    19    23   ar
    37    20    21   ar
    38    20    62    1
    39    21    22   ar
    40    21    64    1
    41    22    23   ar
    42    23    56    1
    43    24    25   ar
    44    24    29   ar
    45    25    26   ar
    46    25    30    1
    47    26    27   ar
    48    26    31    1
    49    27    28   ar
    50    27    32    1
    51    28    29   ar
    52    28    33    1
    53    29    34    1
    54    35    36   ar
    55    35    40   ar
    56    36    37   ar
    57    36    41    1
    58    37    38   ar
    59    37    42    1
    60    38    39   ar
    61    38    76    1
    62    39    40   ar
    63    39    43    1
    64    40    44    1
    65    45    46   ar
    66    45    50   ar
    67    46    47   ar
    68    46    51    1
    69    47    48   ar
    70    47    52    1
    71    48    49   ar
    72    48    53    1
    73    49    50   ar
    74    49    54    1
    75    50    55    1
    76    56    70    1
    77    65    66    1
    78    65    70    1
    79    65    72    1
    80    66    67    2
    81    66    73    1
    82    67    68    1
    83    67    71    1
    84    68    69    2
    85    68    74    1
    86    69    70    1
    87    69    75    1
    88    76    77    2
    89    77    78    2
