@<TRIPOS>MOLECULE
F14P_N3_TD
 77 87 0 0 0
SMALL
GASTEIGER

@<TRIPOS>ATOM
      1 C          -3.4252   -1.4438   -0.0304 C.3     1  UNL1        0.1028
      2 C           0.0059    2.0526   -0.0885 C.3     1  UNL1        0.1028
      3 C           3.2528   -1.6150    0.0501 C.3     1  UNL1        0.1028
      4 C          -0.8427   -3.8474   -0.5026 C.ar    1  UNL1        0.0768
      5 C          -1.9409   -4.7423   -0.5384 C.ar    1  UNL1       -0.0340
      6 C          -3.0818   -3.9797   -0.3609 C.ar    1  UNL1       -0.0385
      7 C          -2.6832   -2.6128   -0.2250 C.ar    1  UNL1        0.0484
      8 N          -1.3188   -2.5738   -0.3261 N.ar    1  UNL1       -0.2509
      9 C          -2.8013   -0.1952    0.0219 C.ar    1  UNL1        0.0480
     10 C          -3.4680    1.0700    0.0279 C.ar    1  UNL1       -0.0388
     11 C          -2.5205    2.0515   -0.0457 C.ar    1  UNL1       -0.0388
     12 C          -1.2387    1.4185   -0.0726 C.ar    1  UNL1        0.0480
     13 N          -1.4248    0.0465   -0.0232 N.ar    1  UNL1       -0.2553
     14 C           1.2151    1.3555   -0.0445 C.ar    1  UNL1        0.0480
     15 C           2.5214    1.9236    0.0713 C.ar    1  UNL1       -0.0388
     16 C           3.4183    0.8956    0.1636 C.ar    1  UNL1       -0.0388
     17 C           2.6950   -0.3350    0.0918 C.ar    1  UNL1        0.0480
     18 N           1.3338   -0.0259   -0.0293 N.ar    1  UNL1       -0.2553
     19 C           2.4566   -2.7414   -0.1786 C.ar    1  UNL1        0.0484
     20 C           2.7835   -4.1275   -0.2787 C.ar    1  UNL1       -0.0385
     21 C           1.6086   -4.8315   -0.4861 C.ar    1  UNL1       -0.0340
     22 C           0.5599   -3.8818   -0.5042 C.ar    1  UNL1        0.0768
     23 N           1.0997   -2.6260   -0.3511 N.ar    1  UNL1       -0.2509
     24 C           6.7235   -1.5741    1.5987 C.ar    1  UNL1        0.1967
     25 C           5.3547   -1.4100    1.4161 C.ar    1  UNL1        0.1687
     26 C           4.7137   -1.7823    0.2294 C.ar    1  UNL1        0.0481
     27 C           5.5157   -2.3356   -0.7743 C.ar    1  UNL1        0.1687
     28 C           6.8840   -2.5207   -0.6089 C.ar    1  UNL1        0.1967
     29 C          -0.3848    5.6782    0.9953 C.ar    1  UNL1        0.1897
     30 C          -0.4326    4.2912    0.9840 C.ar    1  UNL1        0.1680
     31 C           0.0524    3.5364   -0.0891 C.ar    1  UNL1        0.0481
     32 C           0.6046    4.2551   -1.1531 C.ar    1  UNL1        0.1680
     33 C           0.6725    5.6416   -1.1503 C.ar    1  UNL1        0.1897
     34 C          -7.0759   -2.1351   -0.8435 C.ar    1  UNL1        0.1967
     35 C          -5.6924   -2.0392   -0.9498 C.ar    1  UNL1        0.1687
     36 C          -4.9010   -1.5273    0.0842 C.ar    1  UNL1        0.0481
     37 C          -5.5688   -1.1063    1.2398 C.ar    1  UNL1        0.1687
     38 C          -6.9519   -1.1817    1.3627 C.ar    1  UNL1        0.1967
     39 P          -0.0822   -1.2281   -0.1680 P.3     1  UNL1        0.3022
     40 O          -0.1111   -1.4994    1.5012 O.3     1  UNL1       -0.2961
     41 O          -0.1813   -0.9315   -1.8313 O.3     1  UNL1       -0.2961
     42 H          -1.8786   -5.8132   -0.6726 H       1  UNL1        0.0639
     43 H          -4.1021   -4.3341   -0.3252 H       1  UNL1        0.0636
     44 H          -4.5406    1.1965    0.0487 H       1  UNL1        0.0636
     45 H          -2.6831    3.1184   -0.0805 H       1  UNL1        0.0636
     46 H           2.7319    2.9826    0.0979 H       1  UNL1        0.0636
     47 H           4.4929    0.9692    0.2460 H       1  UNL1        0.0636
     48 H           3.7803   -4.5367   -0.1956 H       1  UNL1        0.0636
     49 H           1.4932   -5.9011   -0.5941 H       1  UNL1        0.0639
     50 C           0.1309   -0.4924    2.4711 C.3     1  UNL1        0.0481
     51 H           1.1906   -0.2155    2.5191 H       1  UNL1        0.0530
     52 H          -0.4700    0.4083    2.3014 H       1  UNL1        0.0530
     53 H          -0.1621   -0.9235    3.4329 H       1  UNL1        0.0530
     54 C           0.8761   -1.1793   -2.7437 C.3     1  UNL1        0.0481
     55 H           1.0212   -2.2500   -2.9280 H       1  UNL1        0.0530
     56 H           0.5844   -0.6978   -3.6820 H       1  UNL1        0.0530
     57 H           1.8250   -0.7421   -2.4123 H       1  UNL1        0.0530
     58 C          -7.7084   -1.7015    0.3172 C.ar    1  UNL1        0.1991
     59 C           0.1759    6.3884   -0.0745 C.ar    1  UNL1        0.1759
     60 C           7.4906   -2.1356    0.5825 C.ar    1  UNL1        0.1991
     61 F          -0.8647    6.3490    2.0506 F       1  UNL1       -0.2000
     62 F           1.2124    6.2794   -2.2046 F       1  UNL1       -0.2000
     63 F          -0.9636    3.6726    2.0501 F       1  UNL1       -0.2020
     64 F           1.0967    3.6058   -2.2184 F       1  UNL1       -0.2020
     65 N           0.1882    7.7833    0.0354 N.2     1  UNL1       -0.0660
     66 N           1.0754    9.2643   -1.5877 N.2     1  UNL1        0.0682
     67 N           0.6773    8.4746   -0.8733 N.2     1  UNL1       -0.1615
     68 F          -9.0372   -1.7833    0.4276 F       1  UNL1       -0.1993
     69 F          -7.5574   -0.7695    2.4831 F       1  UNL1       -0.1993
     70 F          -4.8751   -0.6118    2.2746 F       1  UNL1       -0.2020
     71 F          -7.8013   -2.6278   -1.8550 F       1  UNL1       -0.1993
     72 F          -5.1243   -2.4521   -2.0916 F       1  UNL1       -0.2020
     73 F           4.6474   -0.8788    2.4239 F       1  UNL1       -0.2020
     74 F           7.3040   -1.2087    2.7480 F       1  UNL1       -0.1993
     75 F           7.6214   -3.0507   -1.5923 F       1  UNL1       -0.1993
     76 F           8.8053   -2.3018    0.7495 F       1  UNL1       -0.1993
     77 F           4.9712   -2.6997   -1.9448 F       1  UNL1       -0.2020
@<TRIPOS>BOND
     1     1     7    1
     2     1     9    1
     3     1    36    1
     4     2    12    1
     5     2    14    1
     6     2    31    1
     7     3    17    1
     8     3    19    1
     9     3    26    1
    10     4     5   ar
    11     4     8   ar
    12     4    22    1
    13     5     6   ar
    14     5    42    1
    15     6     7   ar
    16     6    43    1
    17     7     8   ar
    18     8    39    1
    19     9    10   ar
    20     9    13   ar
    21    10    11   ar
    22    10    44    1
    23    11    12   ar
    24    11    45    1
    25    12    13   ar
    26    13    39    1
    27    14    15   ar
    28    14    18   ar
    29    15    16   ar
    30    15    46    1
    31    16    17   ar
    32    16    47    1
    33    17    18   ar
    34    18    39    1
    35    19    20   ar
    36    19    23   ar
    37    20    21   ar
    38    20    48    1
    39    21    22   ar
    40    21    49    1
    41    22    23   ar
    42    23    39    1
    43    24    25   ar
    44    24    60   ar
    45    24    74    1
    46    25    26   ar
    47    25    73    1
    48    26    27   ar
    49    27    28   ar
    50    27    77    1
    51    28    60   ar
    52    28    75    1
    53    29    30   ar
    54    29    59   ar
    55    29    61    1
    56    30    31   ar
    57    30    63    1
    58    31    32   ar
    59    32    33   ar
    60    32    64    1
    61    33    59   ar
    62    33    62    1
    63    34    35   ar
    64    34    58   ar
    65    34    71    1
    66    35    36   ar
    67    35    72    1
    68    36    37   ar
    69    37    38   ar
    70    37    70    1
    71    38    58   ar
    72    38    69    1
    73    39    40    1
    74    39    41    1
    75    40    50    1
    76    41    54    1
    77    50    51    1
    78    50    52    1
    79    50    53    1
    80    54    55    1
    81    54    56    1
    82    54    57    1
    83    58    68    1
    84    59    65    1
    85    60    76    1
    86    65    67    2
    87    66    67    2
