# 1Cu_Br_Me
# Created by GaussView 6.0.16
#

#
#

@<TRIPOS>MOLECULE
Molecule Name
74 84
SMALL
NO_CHARGES


@<TRIPOS>ATOM
1 C1     3.3673     0.5649    -0.1169 C
2 C2     0.0043    -3.0196    -0.0006 C
3 C3    -3.3702     0.5539     0.1167 C
4 C4     0.7062     2.9301    -0.0798 C
5 C5     1.7129     3.7992    -0.5897 C
6 C6     2.8836     3.0603    -0.6885 C
7 C7     2.5964     1.7275    -0.2137 C
8 N8     1.2620     1.7174     0.1711 N
9 C9     2.7586    -0.7001     0.1598 C
10 C10     3.3625    -1.8349     0.8102 C
11 C11     2.4184    -2.8396     0.8686 C
12 C12     1.2209    -2.3426     0.2436 C
13 N13     1.4550    -1.0319    -0.1523 N
14 C14    -1.2143    -2.3465    -0.2448 C
15 C15    -2.4099    -2.8469    -0.8708 C
16 C16    -3.3571    -1.8451    -0.8125 C
17 C17    -2.7572    -0.7088    -0.1609 C
18 N18    -1.4527    -1.0366     0.1516 N
19 C19    -2.6032     1.7192     0.2133 C
20 C20    -2.8944     3.0511     0.6880 C
21 C21    -1.7262     3.7938     0.5882 C
22 C22    -0.7170     2.9278     0.0780 C
23 N23    -1.2689     1.7133    -0.1723 N
24 C24    -4.8363     0.6125     0.2648 C
25 C25    -5.4850    -0.1916     1.2122 C
26 C26    -6.8684    -0.1431     1.3464 C
27 C27    -7.6449     0.6836     0.5234 C
28 C28    -6.9905     1.4705    -0.4363 C
29 C29    -5.6071     1.4498    -0.5559 C
30 C30     4.8335     0.6289    -0.2634 C
31 C31     5.4857    -0.1668    -1.2144 C
32 C32     6.8694    -0.1099    -1.3491 C
33 C33     7.6416     0.7144    -0.5210 C
34 C34     6.9828     1.4967     0.4404 C
35 C35     5.6002     1.4679     0.5604 C
36 C36     0.0072    -4.4962    -0.0007 C
37 C37     0.8558    -5.2070    -0.8619 C
38 C38     0.8406    -6.5964    -0.8744 C
39 C39     0.0099    -7.3175    -0.0048 C
40 C40    -0.8251    -6.6005     0.8642 C
41 C41    -0.8413    -5.2112     0.8575 C
42 H42     7.5647     2.1394     1.0963 H
43 H43     5.1038     2.0781     1.3083 H
44 H44     4.9023    -0.8208    -1.8555 H
45 H45     7.3599    -0.7201    -2.1027 H
46 H46    -4.8983    -0.8486     1.8472 H
47 H47    -7.3561    -0.7628     2.0943 H
48 H48    -7.5755     2.1099    -1.0924 H
49 H49    -5.1143     2.0621    -1.3045 H
50 H50    -1.5021    -4.6708     1.5282 H
51 H51    -1.4771    -7.1411     1.5455 H
52 H52     1.5104    -4.6634    -1.5362 H
53 H53     1.4878    -7.1334    -1.5629 H
54 Cu54    -0.0010     0.2480    -0.0004 Cu
55 Br55    -5.0478    -1.9617    -1.6259 Br
56 Br56    -2.6534    -4.4569    -1.8104 Br
57 Br57     5.0543    -1.9473     1.6220 Br
58 Br58     4.4417     3.6998    -1.5211 Br
59 Br59     1.4688     5.5715    -1.1442 Br
60 Br60    -1.4874     5.5672     1.1417 Br
61 Br61    -4.4537     3.6860     1.5221 Br
62 Br62     2.6678    -4.4494     1.8072 Br
63 C63    -9.1429     0.7465     0.6771 C
64 C64     0.0333    -8.8239     0.0149 C
65 C65     9.1430     0.7588    -0.6449 C
66 H66    -9.4424     1.6399     1.2415 H
67 H67    -9.6441     0.7985    -0.2959 H
68 H68    -9.5288    -0.1259     1.2141 H
69 H69     0.7670    -9.1957     0.7430 H
70 H70    -0.9411    -9.2365     0.2973 H
71 H71     0.3095    -9.2335    -0.9623 H
72 H72     9.6266     0.3454     0.2496 H
73 H73     9.4915     0.1836    -1.5083 H
74 H74     9.5034     1.7886    -0.7558 H
@<TRIPOS>BOND
1 1 7 Ar
2 1 9 Ar
3 1 30 1
4 2 12 Ar
5 2 14 Ar
6 2 36 1
7 3 17 Ar
8 3 19 Ar
9 3 24 1
10 4 5 Ar
11 4 8 Ar
12 4 22 Ar
13 5 6 Ar
14 5 59 1
15 6 7 Ar
16 6 58 1
17 7 8 1
18 8 54 1
19 9 10 Ar
20 9 13 Ar
21 10 11 2
22 10 57 1
23 11 12 Ar
24 11 62 1
25 12 13 1
26 13 54 1
27 14 15 Ar
28 14 18 1
29 15 16 2
30 15 56 1
31 16 17 Ar
32 16 55 1
33 17 18 Ar
34 18 54 1
35 19 20 Ar
36 19 23 1
37 20 21 Ar
38 20 61 1
39 21 22 Ar
40 21 60 1
41 22 23 Ar
42 23 54 1
43 24 25 Ar
44 24 29 Ar
45 25 26 Ar
46 25 46 1
47 26 27 Ar
48 26 47 1
49 27 28 Ar
50 27 63 1
51 28 29 Ar
52 28 48 1
53 29 49 1
54 30 31 Ar
55 30 35 Ar
56 31 32 Ar
57 31 44 1
58 32 33 Ar
59 32 45 1
60 33 34 Ar
61 33 65 1
62 34 35 Ar
63 34 42 1
64 35 43 1
65 36 37 Ar
66 36 41 Ar
67 37 38 Ar
68 37 52 1
69 38 39 Ar
70 38 53 1
71 39 40 Ar
72 39 64 1
73 40 41 Ar
74 40 51 1
75 41 50 1
76 63 66 1
77 63 67 1
78 63 68 1
79 64 69 1
80 64 70 1
81 64 71 1
82 65 72 1
83 65 73 1
84 65 74 1
