# 1Cu_H_Me
# Created by GaussView 6.0.16
#

#
#

@<TRIPOS>MOLECULE
Molecule Name
74 84
SMALL
NO_CHARGES


@<TRIPOS>ATOM
1 C1     3.3575     1.1179     0.0209 C
2 C2     0.0059    -2.4835    -0.0002 C
3 C3    -3.3706     1.0940    -0.0207 C
4 C4     0.6952     3.4861     0.0134 C
5 C5     1.7743     4.4072    -0.1318 C
6 C6     2.9453     3.6682    -0.1054 C
7 C7     2.5846     2.2838     0.0368 C
8 N8     1.2165     2.2336     0.1811 N
9 C9     2.7703    -0.1698     0.0358 C
10 C10     3.4635    -1.4104     0.2431 C
11 C11     2.5325    -2.4160     0.2470 C
12 C12     1.2470    -1.8170     0.0202 C
13 N13     1.4226    -0.4535    -0.1459 N
14 C14    -1.2397    -1.8262    -0.0194 C
15 C15    -2.5212    -2.4344    -0.2446 C
16 C16    -3.4593    -1.4354    -0.2401 C
17 C17    -2.7746    -0.1897    -0.0345 C
18 N18    -1.4248    -0.4638     0.1463 N
19 C19    -2.6059     2.2652    -0.0388 C
20 C20    -2.9764     3.6472     0.1021 C
21 C21    -1.8107     4.3946     0.1271 C
22 C22    -0.7251     3.4810    -0.0174 C
23 N23    -1.2375     2.2247    -0.1838 N
24 C24    -4.8547     1.2147    -0.0112 C
25 C25    -5.5152     1.7724     1.0919 C
26 C26    -6.9031     1.9068     1.0970 C
27 C27    -7.6752     1.4929     0.0051 C
28 C28    -7.0106     0.9350    -1.0958 C
29 C29    -5.6244     0.7998    -1.1085 C
30 C30     4.8409     1.2474     0.0140 C
31 C31     5.5007     1.8126    -1.0870 C
32 C32     6.8863     1.9611    -1.0864 C
33 C33     7.6590     1.5505     0.0077 C
34 C34     6.9954     0.9907     1.1069 C
35 C35     5.6097     0.8412     1.1139 C
36 C36     0.0138    -3.9693    -0.0026 C
37 C37     0.7270    -4.6838    -0.9789 C
38 C38     0.7333    -6.0759    -0.9806 C
39 C39     0.0377    -6.8052    -0.0065 C
40 C40    -0.6753    -6.0908     0.9650 C
41 C41    -0.6908    -4.6978     0.9686 C
42 H42     7.5703     0.6763     1.9746 H
43 H43     5.1147     0.4209     1.9844 H
44 H44     4.9213     2.1316    -1.9482 H
45 H45     7.3762     2.4015    -1.9516 H
46 H46    -4.9364     2.0902     1.9541 H
47 H47    -7.3945     2.3356     1.9670 H
48 H48    -7.5867     0.6084    -1.9584 H
49 H49    -5.1289     0.3773    -1.9777 H
50 H50    -1.2429    -4.1638     1.7360 H
51 H51    -1.2218    -6.6334     1.7325 H
52 H52     1.2643    -4.1380    -1.7485 H
53 H53     1.2827    -6.6069    -1.7543 H
54 Cu54    -0.0056     0.7981    -0.0007 Cu
55 C55    -9.1740     1.6632    -0.0013 C
56 C56     0.0814    -8.3125     0.0107 C
57 C57     9.1612     1.6869    -0.0085 C
58 H58    -9.4697     2.5562    -0.5684 H
59 H59    -9.6738     0.8066    -0.4674 H
60 H60    -9.5691     1.7750     1.0137 H
61 H61     0.9708    -8.6758     0.5434 H
62 H62    -0.7947    -8.7336     0.5148 H
63 H63     0.1224    -8.7245    -1.0036 H
64 H64     9.6334     0.8283    -0.5049 H
65 H65     9.4766     2.5856    -0.5497 H
66 H66     9.5693     1.7410     1.0063 H
67 H67    -2.6841    -3.4885    -0.4154 H
68 H68    -4.5252    -1.5378    -0.3822 H
69 H69     2.7028    -3.4687     0.4185 H
70 H70     4.5298    -1.5050     0.3868 H
71 H71     3.9537     4.0389    -0.2242 H
72 H72     1.6801     5.4794    -0.2443 H
73 H73    -1.7240     5.4676     0.2384 H
74 H74    -3.9873     4.0107     0.2214 H
@<TRIPOS>BOND
1 1 7 Ar
2 1 9 Ar
3 1 30 1
4 2 12 Ar
5 2 14 Ar
6 2 36 1
7 3 17 Ar
8 3 19 Ar
9 3 24 1
10 4 5 Ar
11 4 8 Ar
12 4 22 Ar
13 5 6 2
14 5 72 1
15 6 7 Ar
16 6 71 1
17 7 8 Ar
18 8 54 1
19 9 10 Ar
20 9 13 1
21 10 11 2
22 10 70 1
23 11 12 Ar
24 11 69 1
25 12 13 1
26 13 54 1
27 14 15 Ar
28 14 18 1
29 15 16 2
30 15 67 1
31 16 17 Ar
32 16 68 1
33 17 18 1
34 18 54 1
35 19 20 Ar
36 19 23 Ar
37 20 21 2
38 20 74 1
39 21 22 Ar
40 21 73 1
41 22 23 Ar
42 23 54 1
43 24 25 Ar
44 24 29 Ar
45 25 26 Ar
46 25 46 1
47 26 27 Ar
48 26 47 1
49 27 28 Ar
50 27 55 1
51 28 29 Ar
52 28 48 1
53 29 49 1
54 30 31 Ar
55 30 35 Ar
56 31 32 Ar
57 31 44 1
58 32 33 Ar
59 32 45 1
60 33 34 Ar
61 33 57 1
62 34 35 Ar
63 34 42 1
64 35 43 1
65 36 37 Ar
66 36 41 Ar
67 37 38 Ar
68 37 52 1
69 38 39 Ar
70 38 53 1
71 39 40 Ar
72 39 56 1
73 40 41 Ar
74 40 51 1
75 41 50 1
76 55 58 1
77 55 59 1
78 55 60 1
79 56 61 1
80 56 62 1
81 56 63 1
82 57 64 1
83 57 65 1
84 57 66 1
