# 150d_C3_TD
# Created by GaussView 6.0.16
#

#
#

@<TRIPOS>MOLECULE
Molecule Name
74 81
SMALL
NO_CHARGES


@<TRIPOS>ATOM
1 C1     2.9760    -0.9682    -0.2297 C
2 C2    -0.7562     2.2362    -0.0175 C
3 C3    -3.8401    -1.5678    -0.0493 C
4 C4     0.4533    -3.5485    -0.3898 C
5 C5     1.5480    -4.3587    -0.0236 C
6 C6     2.6839    -3.5474     0.0493 C
7 C7     2.3057    -2.2160    -0.2599 C
8 N8     0.9547    -2.2681    -0.5421 N
9 C9     2.2930     0.2590    -0.2164 C
10 C10     2.8173     1.5864    -0.3487 C
11 C11     1.7757     2.4807    -0.2962 C
12 C12     0.5552     1.7510    -0.1186 C
13 N13     0.9125     0.4176    -0.0952 N
14 C14    -1.9416     1.4563     0.0376 C
15 C15    -3.2853     2.0078     0.1524 C
16 C16    -4.1469     0.9545     0.1446 C
17 C17    -3.3410    -0.2481     0.0291 C
18 N18    -2.0030     0.0968    -0.0269 N
19 C19    -2.9965    -2.6853    -0.2428 C
20 C20    -3.1796    -4.1007    -0.2110 C
21 C21    -1.9256    -4.6969    -0.2979 C
22 C22    -0.9581    -3.6590    -0.3934 C
23 N23    -1.6556    -2.4831    -0.3964 N
24 C24     4.4608    -0.9632    -0.2020 C
25 C25     5.1842    -1.4910     0.8701 C
26 C26     6.5738    -1.5332     0.8953 C
27 C27     6.6064    -0.4738    -1.2391 C
28 C28     5.2219    -0.4556    -1.2602 C
29 H29     1.4907    -5.4070     0.2358 H
30 H30     3.6665    -3.8602     0.3704 H
31 H31     0.5240    -1.5920    -1.1596 H
32 H32     3.8596     1.8246    -0.4996 H
33 H33     1.8419     3.5538    -0.4016 H
34 H34     0.2807    -0.2693     0.2937 H
35 H35    -3.5357     3.0559     0.2364 H
36 H36    -5.2263     0.9919     0.1937 H
37 H37    -4.1283    -4.6092    -0.1127 H
38 H38    -1.7092    -5.7564    -0.2993 H
39 H39    -1.3125    -1.5203    -0.2931 H
40 F40     4.6169     0.0694    -2.3356 F
41 F41     7.2975     0.0256    -2.2829 F
42 F42     4.5367    -1.9948     1.9313 F
43 F43     7.1720    -2.0672     1.9764 F
44 C44     7.3266    -1.0205    -0.1673 C
45 N45     8.7190    -1.0128    -0.2580 N
46 H46     9.0755    -0.5838    -1.1080 H
47 C47     9.6423    -1.4976     0.5959 C
48 H48     9.2653    -1.9527     1.5026 H
49 C49    11.0108    -1.3989     0.3794 C
50 H50    11.3228    -0.9571    -0.5754 H
51 C51    11.9604    -1.7152     1.3606 C
52 H52    11.4078    -2.1849     2.2075 H
53 C53    -0.9002     3.7189     0.0035 C
54 C54    -1.5257     4.4104    -1.0388 C
55 C55    -0.4029     4.4891     1.0593 C
56 C56    -1.6659     5.7941    -1.0305 C
57 C57    -0.5201     5.8750     1.0845 C
58 C58    -1.1579     6.5297     0.0357 C
59 C59    -5.2942    -1.8167     0.0973 C
60 C60    -6.0272    -2.4638    -0.9045 C
61 C61    -5.9979    -1.4471     1.2495 C
62 C62    -7.3872    -2.7243    -0.7772 C
63 C63    -7.3600    -1.6881     1.3939 C
64 C64    -8.0575    -2.3321     0.3769 C
65 F65    -2.0130     3.7391    -2.0921 F
66 F66     0.2138     3.8954     2.0919 F
67 F67    -0.0325     6.5799     2.1132 F
68 F68    -1.2806     7.8602     0.0512 F
69 F69    -2.2715     6.4224    -2.0459 F
70 F70    -5.4230    -2.8465    -2.0394 F
71 F71    -8.0557    -3.3380    -1.7615 F
72 F72    -9.3650    -2.5730     0.5081 F
73 F73    -5.3614    -0.8491     2.2667 F
74 F74    -7.9990    -1.3207     2.5114 F
@<TRIPOS>BOND
1 1 7 Ar
2 1 9 Ar
3 1 24 1
4 2 12 Ar
5 2 14 Ar
6 2 53 1
7 3 17 Ar
8 3 19 Ar
9 3 59 1
10 4 5 Ar
11 4 8 1
12 4 22 Ar
13 5 6 Ar
14 5 29 1
15 6 7 Ar
16 6 30 1
17 7 8 Ar
18 8 31 1
19 9 10 Ar
20 9 13 1
21 10 11 2
22 10 32 1
23 11 12 Ar
24 11 33 1
25 12 13 Ar
26 13 34 1
27 14 15 1
28 14 18 Ar
29 15 16 2
30 15 35 1
31 16 17 1
32 16 36 1
33 17 18 1
34 19 20 Ar
35 19 23 Ar
36 20 21 Ar
37 20 37 1
38 21 22 Ar
39 21 38 1
40 22 23 Ar
41 23 39 1
42 24 25 Ar
43 24 28 Ar
44 25 26 Ar
45 25 42 1
46 26 43 1
47 26 44 Ar
48 27 28 2
49 27 41 1
50 27 44 Ar
51 28 40 1
52 44 45 1
53 45 46 1
54 45 47 Ar
55 47 48 1
56 47 49 Ar
57 49 50 1
58 49 51 Ar
59 51 52 1
60 53 54 Ar
61 53 55 Ar
62 54 56 Ar
63 54 65 1
64 55 57 Ar
65 55 66 1
66 56 58 Ar
67 56 69 1
68 57 58 Ar
69 57 67 1
70 58 68 1
71 59 60 Ar
72 59 61 Ar
73 60 62 Ar
74 60 70 1
75 61 63 Ar
76 61 73 1
77 62 64 Ar
78 62 71 1
79 63 64 Ar
80 63 74 1
81 64 72 1
