# Co_F15_Br8
# Created by GaussView 6.0.16
#

#
#

@<TRIPOS>MOLECULE
Molecule Name
65 75
SMALL
NO_CHARGES


@<TRIPOS>ATOM
1 C1     3.3506    -0.7470    -0.0544 C
2 C2     0.0326     2.8399    -0.0022 C
3 C3    -3.3591    -0.7010     0.0500 C
4 C4     0.6500    -3.1414    -0.0676 C
5 C5     1.7241    -4.0530    -0.2392 C
6 C6     2.8859    -3.3035    -0.3087 C
7 C7     2.5454    -1.8956    -0.1560 C
8 N8     1.1981    -1.8203    -0.0572 N
9 C9     2.7914     0.5267     0.0981 C
10 C10     3.4935     1.7669     0.3612 C
11 C11     2.5647     2.7701     0.4171 C
12 C12     1.2608     2.1784     0.1579 C
13 N13     1.4307     0.8220     0.0203 N
14 C14    -1.1964     2.1828    -0.1676 C
15 C15    -2.4940     2.7840    -0.4330 C
16 C16    -3.4439     1.7967    -0.3797 C
17 C17    -2.7726     0.5487    -0.1136 C
18 N18    -1.3787     0.8236    -0.0397 N
19 C19    -2.5794    -1.8805     0.1575 C
20 C20    -2.9641    -3.2841     0.3097 C
21 C21    -1.8189    -4.0449     0.2436 C
22 C22    -0.7226    -3.1358     0.0738 C
23 N23    -1.2451    -1.8338     0.0603 N
24 C24    -4.8375    -0.8460     0.0750 C
25 C25    -5.5373    -1.2465    -1.0621 C
26 C26    -6.9164    -1.4067    -1.0499 C
27 C27    -7.6195    -1.1727     0.1299 C
28 C28    -6.9432    -0.7820     1.2831 C
29 C29    -5.5633    -0.6232     1.2435 C
30 F30    -4.8713    -1.4829    -2.2004 F
31 F31    -7.5703    -1.7869    -2.1522 F
32 F32    -8.9445    -1.3266     0.1558 F
33 F33    -7.6236    -0.5610     2.4124 F
34 F34    -4.9300    -0.2378     2.3589 F
35 C35     0.0363     4.3266     0.0047 C
36 C36    -0.3628     5.0412     1.1326 C
37 C37    -0.3590     6.4299     1.1545 C
38 C38     0.0480     7.1290     0.0205 C
39 C39     0.4493     6.4392    -1.1212 C
40 C40     0.4423     5.0506    -1.1149 C
41 F41    -0.7688     4.3838     2.2274 F
42 F42    -0.7467     7.0978     2.2465 F
43 F43     0.8420     7.1163    -2.2057 F
44 F44     0.8409     4.4024    -2.2175 F
45 C45     4.8255    -0.9257    -0.0723 C
46 C46     5.5628    -0.7331    -1.2392 C
47 C47     6.9392    -0.9217    -1.2697 C
48 C48     7.6017    -1.3117    -0.1084 C
49 C49     6.8877    -1.5153     1.0703 C
50 C50     5.5122    -1.3248     1.0735 C
51 F51     4.9441    -0.3526    -2.3645 F
52 F52     7.6297    -0.7310    -2.3988 F
53 F53     8.9234    -1.4947    -0.1254 F
54 F54     7.5280    -1.8955     2.1810 F
55 F55     4.8374    -1.5334     2.2122 F
56 F56     0.0529     8.4638     0.0278 F
57 Br57     4.5613    -4.0637    -0.6189 Br
58 Br58     1.6542    -5.9110    -0.4172 Br
59 Br59    -1.7703    -5.9017     0.4232 Br
60 Br60    -4.6626    -4.0053     0.6184 Br
61 Br61    -5.2652     2.1278    -0.6981 Br
62 Br62    -2.9244     4.5491    -0.8937 Br
63 Br63     3.0220     4.5359     0.8672 Br
64 Br64     5.3243     2.0587     0.6660 Br
65 Co65     0.0042    -0.4457    -0.0009 Co
@<TRIPOS>BOND
1 1 7 Ar
2 1 9 Ar
3 1 45 1
4 2 12 Ar
5 2 14 Ar
6 2 35 1
7 3 17 Ar
8 3 19 Ar
9 3 24 1
10 4 5 Ar
11 4 8 1
12 4 22 2
13 5 6 2
14 5 58 1
15 6 7 1
16 6 57 1
17 7 8 Ar
18 8 65 1
19 9 10 1
20 9 13 1
21 10 11 2
22 10 64 1
23 11 12 1
24 11 63 1
25 12 13 Ar
26 13 65 1
27 14 15 1
28 14 18 Ar
29 15 16 2
30 15 62 1
31 16 17 Ar
32 16 61 1
33 17 18 1
34 18 65 1
35 19 20 1
36 19 23 Ar
37 20 21 2
38 20 60 1
39 21 22 Ar
40 21 59 1
41 22 23 1
42 23 65 1
43 24 25 Ar
44 24 29 Ar
45 25 26 Ar
46 25 30 1
47 26 27 Ar
48 26 31 1
49 27 28 Ar
50 27 32 1
51 28 29 Ar
52 28 33 1
53 29 34 1
54 35 36 Ar
55 35 40 Ar
56 36 37 Ar
57 36 41 1
58 37 38 Ar
59 37 42 1
60 38 39 Ar
61 38 56 1
62 39 40 Ar
63 39 43 1
64 40 44 1
65 45 46 Ar
66 45 50 Ar
67 46 47 Ar
68 46 51 1
69 47 48 Ar
70 47 52 1
71 48 49 Ar
72 48 53 1
73 49 50 Ar
74 49 54 1
75 50 55 1
