# 151e_N_C2_TD
# Created by GaussView 6.0.16
#

#
#

@<TRIPOS>MOLECULE
Molecule Name
75 82
SMALL
NO_CHARGES


@<TRIPOS>ATOM
1 C1     3.4339    -1.6971    -0.0848 C
2 C2    -0.0177     1.8197    -0.0927 C
3 C3    -3.4117    -1.7092     0.0079 C
4 C4     0.7036    -4.0602    -0.1826 C
5 C5     1.7152    -4.9312     0.2751 C
6 C6     2.9125    -4.2125     0.3321 C
7 C7     2.6569    -2.8822    -0.0849 C
8 N8     1.3185    -2.8436    -0.4142 N
9 C9     2.8528    -0.4177    -0.1415 C
10 C10     3.4846     0.8447    -0.3798 C
11 C11     2.5224     1.8258    -0.3859 C
12 C12     1.2471     1.2161    -0.1506 C
13 N13     1.4936    -0.1367    -0.0266 N
14 C14    -1.2643     1.1454    -0.0154 C
15 C15    -2.5574     1.8129     0.0540 C
16 C16    -3.5055     0.8371     0.0797 C
17 C17    -2.8040    -0.4337     0.0308 C
18 N18    -1.4414    -0.2064    -0.0198 N
19 C19    -2.6629    -2.9018    -0.1173 C
20 C20    -2.9651    -4.2935    -0.0241 C
21 C21    -1.7645    -4.9964    -0.0667 C
22 C22    -0.7123    -4.0493    -0.1954 C
23 N23    -1.3075    -2.8200    -0.2590 N
24 C24    -0.0319     3.3072    -0.1346 C
25 C25     0.5333     4.0823     0.8837 C
26 C26     0.5063     5.4673     0.8627 C
27 C27    -0.5996     5.4128    -1.2372 C
28 C28    -0.5984     4.0232    -1.1897 C
29 H29     1.5593    -5.9490     0.6056 H
30 H30     3.8595    -4.5745     0.7074 H
31 H31     0.9471    -2.1554    -1.0562 H
32 H32     4.5408     0.9730    -0.5690 H
33 H33     2.6727     2.8788    -0.5751 H
34 H34     0.8011    -0.7495     0.3817 H
35 H35    -2.7168     2.8814     0.0875 H
36 H36    -4.5784     0.9684     0.1094 H
37 H37    -3.9550    -4.7151     0.0812 H
38 H38    -1.6385    -6.0693    -0.0200 H
39 H39    -0.8860    -1.8849    -0.1947 H
40 C40    -0.0573     6.1970    -0.2035 C
41 F41     1.0889     3.4805     1.9504 F
42 F42     1.0240     6.1297     1.9176 F
43 F43    -1.1355     3.3651    -2.2325 F
44 F44    -1.1162     5.9958    -2.3407 F
45 N45    -0.0871     7.5894    -0.1566 N
46 C46     1.1860     8.2967    -0.0502 C
47 H47     1.8689     7.7628     0.6096 H
48 C48    -1.1014     8.3225    -0.9017 C
49 H49    -1.2357     9.2963    -0.4176 H
50 H50    -0.8321     8.4961    -1.9537 H
51 H51    -2.0540     7.7913    -0.8665 H
52 H52     1.0081     9.2903     0.3745 H
53 H53     1.6679     8.4215    -1.0338 H
54 C54    -4.8832    -1.8275     0.1439 C
55 C55    -5.6582    -2.4566    -0.8377 C
56 C56    -5.5662    -1.3441     1.2665 C
57 C57    -7.0370    -2.5934    -0.7197 C
58 C58    -6.9457    -1.4596     1.4001 C
59 C59    -7.6844    -2.0892     0.4035 C
60 C60     4.9034    -1.8197     0.0085 C
61 C61     5.6267    -2.6377    -0.8714 C
62 C62     5.6475    -1.1505     0.9907 C
63 C63     7.0068    -2.7815    -0.7872 C
64 C64     7.0296    -1.2705     1.0838 C
65 C65     7.7130    -2.0922     0.1933 C
66 F66    -9.0098    -2.2094     0.5251 F
67 F67    -7.5642    -0.9854     2.4889 F
68 F68    -4.8931    -0.7549     2.2650 F
69 F69     5.0323    -0.3754     1.8953 F
70 F70     7.7032    -0.6172     2.0387 F
71 F71     9.0400    -2.2192     0.2796 F
72 F72     7.6606    -3.5641    -1.6547 F
73 F73     4.9941    -3.3023    -1.8494 F
74 F74    -5.0770    -2.9446    -1.9438 F
75 F75    -7.7451    -3.1943    -1.6846 F
@<TRIPOS>BOND
1 1 7 Ar
2 1 9 Ar
3 1 60 1
4 2 12 Ar
5 2 14 Ar
6 2 24 1
7 3 17 Ar
8 3 19 Ar
9 3 54 1
10 4 5 Ar
11 4 8 1
12 4 22 Ar
13 5 6 Ar
14 5 29 1
15 6 7 Ar
16 6 30 1
17 7 8 Ar
18 8 31 1
19 9 10 Ar
20 9 13 1
21 10 11 2
22 10 32 1
23 11 12 Ar
24 11 33 1
25 12 13 Ar
26 13 34 1
27 14 15 1
28 14 18 Ar
29 15 16 2
30 15 35 1
31 16 17 1
32 16 36 1
33 17 18 1
34 19 20 Ar
35 19 23 Ar
36 20 21 Ar
37 20 37 1
38 21 22 Ar
39 21 38 1
40 22 23 Ar
41 23 39 1
42 24 25 Ar
43 24 28 Ar
44 25 26 2
45 25 41 1
46 26 40 Ar
47 26 42 1
48 27 28 Ar
49 27 40 Ar
50 27 44 1
51 28 43 1
52 40 45 1
53 45 46 1
54 45 48 1
55 46 47 1
56 46 52 1
57 46 53 1
58 48 49 1
59 48 50 1
60 48 51 1
61 54 55 Ar
62 54 56 Ar
63 55 57 Ar
64 55 74 1
65 56 58 Ar
66 56 68 1
67 57 59 Ar
68 57 75 1
69 58 59 Ar
70 58 67 1
71 59 66 1
72 60 61 Ar
73 60 62 Ar
74 61 63 Ar
75 61 73 1
76 62 64 Ar
77 62 69 1
78 63 65 Ar
79 63 72 1
80 64 65 Ar
81 64 70 1
82 65 71 1
