# Cu_Ph2_4MeOPh2_COOH_N5_TD
# Created by GaussView 6.0.16
#

#
#

@<TRIPOS>MOLECULE
Molecule Name
98 110
SMALL
NO_CHARGES


@<TRIPOS>ATOM
1 C1     3.6607    -2.9015     0.2708 C
2 C2    -0.0547     0.3064    -0.1326 C
3 C3     3.4007     3.8036    -0.2571 C
4 C4     5.9357    -0.1427     0.2343 C
5 C5     6.8998    -1.1618     0.0798 C
6 C6     4.8073    -2.0858     0.2141 C
7 N7     4.7004    -0.7234     0.3861 N
8 C8     2.3584    -2.3491     0.2308 C
9 C9     1.1499    -3.0382     0.5919 C
10 C10     0.1131    -2.1505     0.4804 C
11 C11     0.6631    -0.8960     0.0478 C
12 N12     2.0288    -1.0456    -0.1245 N
13 C13     0.5609     1.5698    -0.2601 C
14 C14    -0.0723     2.7967    -0.6543 C
15 C15     2.1405     3.1557    -0.3155 C
16 N16     1.9008     1.8211    -0.0265 N
17 C17     4.5949     3.0949    -0.1164 C
18 C18     6.7361     2.4086     0.2519 C
19 C19     5.8705     1.2773     0.1385 C
20 N20     4.6139     1.7179    -0.1370 N
21 C21     3.4627     5.2873    -0.3786 C
22 C22     3.8604     6.0687     0.7158 C
23 C23     3.9384     7.4572     0.6027 C
24 C24     3.6217     8.0817    -0.6048 C
25 C25     3.2278     7.3106    -1.7004 C
26 C26     3.1493     5.9225    -1.5893 C
27 C27     3.8042    -4.3620     0.4664 C
28 C28     3.1369    -5.2749    -0.3656 C
29 C29     3.3019    -6.6467    -0.1871 C
30 C30     4.1291    -7.1284     0.8305 C
31 C31     4.7872    -6.2290     1.6720 C
32 C32     4.6271    -4.8568     1.4916 C
33 C33    -1.5319     0.2360    -0.1705 C
34 C34    -2.1949    -0.6757    -1.0117 C
35 C35    -3.5803    -0.7495    -1.0523 C
36 C36    -4.3658     0.0950    -0.2451 C
37 C37    -3.7111     1.0047     0.6061 C
38 C38    -2.3249     1.0711     0.6374 C
39 H39     1.1028    -4.0631     0.9297 H
40 H40    -0.9275    -2.3216     0.7150 H
41 H41     7.9654    -1.0333    -0.0523 H
42 H42     7.8022     2.3747     0.4339 H
43 H43    -1.1148     2.8992    -0.9181 H
44 C44     0.8932     3.7702    -0.6745 C
45 H45     0.7677     4.8125    -0.9290 H
46 C46     6.2119    -2.3754     0.0365 C
47 C47     5.9509     3.5350     0.0816 C
48 H48     6.2682     4.5670     0.1370 H
49 C49     6.8989    -3.6324    -0.3068 C
50 O50     8.0105    -3.9371     0.0863 O
51 O51     6.2068    -4.4021    -1.1775 O
52 H52     6.7283    -5.2200    -1.2920 H
53 H53     2.5124    -4.9005    -1.1706 H
54 H54     2.7906    -7.3410    -0.8483 H
55 H55     4.2573    -8.1984     0.9685 H
56 H56     5.4248    -6.5952     2.4717 H
57 H57     5.1351    -4.1596     2.1504 H
58 H58    -1.6100    -1.3335    -1.6470 H
59 H59    -1.8427     1.7759     1.3073 H
60 H60    -4.2968     1.6573     1.2436 H
61 H61    -4.0623    -1.4628    -1.7110 H
62 H62     4.0996     5.5819     1.6565 H
63 H63     4.2434     8.0504     1.4603 H
64 H64     3.6822     9.1628    -0.6923 H
65 H65     2.9868     7.7893    -2.6455 H
66 H66     2.8543     5.3216    -2.4444 H
67 N67    -5.7687     0.0245    -0.2707 N
68 C68    -6.5161     0.2945     0.9140 C
69 C69    -7.5791     1.2097     0.8846 C
70 C70    -6.2123    -0.3528     2.1135 C
71 C71    -8.3186     1.4657     2.0298 C
72 H72    -7.8210     1.7151    -0.0447 H
73 C73    -6.9383    -0.0860     3.2757 C
74 H74    -5.3964    -1.0681     2.1422 H
75 C75    -8.0027     0.8228     3.2371 C
76 H76    -9.1436     2.1709     2.0162 H
77 H77    -6.6767    -0.6018     4.1919 H
78 C78    -6.4684    -0.3492    -1.4467 C
79 C79    -7.5790    -1.1902    -1.3547 C
80 C80    -6.0708     0.1447    -2.7024 C
81 C81    -8.3026    -1.5357    -2.5029 C
82 H82    -7.9002    -1.5815    -0.3964 H
83 C83    -6.7869    -0.2215    -3.8352 C
84 H84    -5.2189     0.8110    -2.7761 H
85 C85    -7.9057    -1.0573    -3.7573 C
86 H86    -6.4816     0.1622    -4.8048 H
87 H87    -8.4502    -1.3152    -4.6571 H
88 Cu88     3.2238     0.4360     0.0228 Cu
89 O89    -8.7831     1.1469     4.3049 O
90 O90    -9.3700    -2.3558    -2.2929 O
91 C91    -8.5055     0.5157     5.5470 C
92 H92    -9.2351     0.9128     6.2556 H
93 H93    -8.6229    -0.5738     5.4812 H
94 H94    -7.4938     0.7513     5.9023 H
95 C95   -10.1382    -2.7513    -3.4200 C
96 H96    -9.5344    -3.3132    -4.1445 H
97 H97   -10.9272    -3.3994    -3.0329 H
98 H98   -10.5954    -1.8884    -3.9215 H
@<TRIPOS>BOND
1 1 6 Ar
2 1 8 Ar
3 1 27 1
4 2 11 Ar
5 2 13 Ar
6 2 33 1
7 3 15 Ar
8 3 17 Ar
9 3 21 1
10 4 5 Ar
11 4 7 Ar
12 4 19 Ar
13 5 41 1
14 5 46 Ar
15 6 7 Ar
16 6 46 Ar
17 7 88 1
18 8 9 Ar
19 8 12 1
20 9 10 2
21 9 39 1
22 10 11 Ar
23 10 40 1
24 11 12 1
25 12 88 1
26 13 14 Ar
27 13 16 1
28 14 43 1
29 14 44 2
30 15 16 1
31 15 44 Ar
32 16 88 1
33 17 20 Ar
34 17 47 Ar
35 18 19 Ar
36 18 42 1
37 18 47 2
38 19 20 Ar
39 20 88 1
40 21 22 Ar
41 21 26 Ar
42 22 23 Ar
43 22 62 1
44 23 24 Ar
45 23 63 1
46 24 25 Ar
47 24 64 1
48 25 26 Ar
49 25 65 1
50 26 66 1
51 27 28 Ar
52 27 32 Ar
53 28 29 Ar
54 28 53 1
55 29 30 Ar
56 29 54 1
57 30 31 Ar
58 30 55 1
59 31 32 Ar
60 31 56 1
61 32 57 1
62 33 34 Ar
63 33 38 Ar
64 34 35 Ar
65 34 58 1
66 35 36 Ar
67 35 61 1
68 36 37 Ar
69 36 67 1
70 37 38 Ar
71 37 60 1
72 38 59 1
73 44 45 1
74 46 49 1
75 47 48 1
76 49 50 2
77 49 51 1
78 51 52 1
79 67 68 1
80 67 78 1
81 68 69 Ar
82 68 70 Ar
83 69 71 Ar
84 69 72 1
85 70 73 Ar
86 70 74 1
87 71 75 Ar
88 71 76 1
89 73 75 Ar
90 73 77 1
91 75 89 1
92 78 79 Ar
93 78 80 Ar
94 79 81 Ar
95 79 82 1
96 80 83 Ar
97 80 84 1
98 81 85 Ar
99 81 90 1
100 83 85 Ar
101 83 86 1
102 85 87 1
103 89 91 1
104 90 95 1
105 91 92 1
106 91 93 1
107 91 94 1
108 95 96 1
109 95 97 1
110 95 98 1
