# Cu_Ph4_COOH_N5_TD
# Created by GaussView 6.0.16
#

#
#

@<TRIPOS>MOLECULE
Molecule Name
90 102
SMALL
NO_CHARGES


@<TRIPOS>ATOM
1 C1     3.1166    -2.7945     0.1160 C
2 C2    -0.7925     0.1983    -0.0094 C
3 C3     2.4427     3.9026    -0.0440 C
4 C4     5.2222     0.0956     0.1131 C
5 C5     6.2398    -0.8582    -0.1052 C
6 C6     4.2108    -1.9103     0.0558 C
7 N7     4.0296    -0.5638     0.2792 N
8 C8     1.7833    -2.3210     0.1365 C
9 C9     0.6290    -3.1004     0.4923 C
10 C10    -0.4622    -2.2745     0.4514 C
11 C11    -0.0008    -0.9673     0.0742 C
12 N12     1.3656    -1.0239    -0.1414 N
13 C13    -0.2582     1.5022    -0.0756 C
14 C14    -0.9786     2.7091    -0.3677 C
15 C15     1.2207     3.1838    -0.0873 C
16 N16     1.0729     1.8218     0.1257 N
17 C17     3.6815     3.2600    -0.0052 C
18 C18     5.8726     2.6847     0.2379 C
19 C19     5.0708     1.5116     0.0909 C
20 N20     3.7798     1.8900    -0.1116 N
21 C21     2.4141     5.3919    -0.0697 C
22 C22     2.8412     6.1258     1.0466 C
23 C23     2.8324     7.5207     1.0222 C
24 C24     2.3991     8.2002    -0.1175 C
25 C25     1.9765     7.4773    -1.2349 C
26 C26     1.9846     6.0829    -1.2126 C
27 C27     3.3537    -4.2500     0.2499 C
28 C28     2.7228    -5.1707    -0.6015 C
29 C29     2.9764    -6.5352    -0.4804 C
30 C30     3.8575    -7.0022     0.4982 C
31 C31     4.4809    -6.0955     1.3582 C
32 C32     4.2322    -4.7302     1.2351 C
33 C33    -2.2645     0.0384    -0.0117 C
34 C34    -2.8928    -0.8592    -0.8934 C
35 C35    -4.2712    -1.0262    -0.8949 C
36 C36    -5.0797    -0.2917    -0.0096 C
37 C37    -4.4619     0.6130     0.8716 C
38 C38    -3.0820     0.7688     0.8693 C
39 H39     0.6525    -4.1419     0.7780 H
40 H40    -1.4837    -2.5214     0.7014 H
41 H41     7.2913    -0.6610    -0.2622 H
42 H42     6.9455     2.7050     0.3767 H
43 H43    -2.0352     2.7632    -0.5855 H
44 C44    -0.0750     3.7403    -0.3597 C
45 H45    -0.2741     4.7863    -0.5416 H
46 C46     5.6239    -2.1085    -0.1723 C
47 C47     5.0168     3.7693     0.1653 C
48 H48     5.2765     4.8133     0.2711 H
49 C49     6.3738    -3.3100    -0.5784 C
50 O50     7.5117    -3.5611    -0.2249 O
51 O51     5.7044    -4.0887    -1.4585 O
52 H52     6.2706    -4.8684    -1.6179 H
53 H53     2.0562    -4.8062    -1.3766 H
54 H54     2.4919    -7.2348    -1.1559 H
55 H55     4.0550    -8.0664     0.5913 H
56 H56     5.1602    -6.4510     2.1277 H
57 H57     4.7137    -4.0275     1.9078 H
58 H58    -2.2868    -1.4316    -1.5885 H
59 H59    -2.6253     1.4636     1.5667 H
60 H60    -5.0692     1.1865     1.5629 H
61 H61    -4.7299    -1.7277    -1.5827 H
62 H62     3.1710     5.5967     1.9357 H
63 H63     3.1609     8.0758     1.8965 H
64 H64     2.3923     9.2864    -0.1358 H
65 H65     1.6456     7.9986    -2.1289 H
66 H66     1.6688     5.5213    -2.0866 H
67 N67    -6.4790    -0.4635    -0.0037 N
68 C68    -7.2060    -0.3900     1.2146 C
69 C69    -8.4410     0.2729     1.2620 C
70 C70    -6.7006    -0.9850     2.3803 C
71 C71    -9.1568     0.3330     2.4560 C
72 H72    -8.8336     0.7358     0.3630 H
73 C73    -7.4141    -0.9019     3.5741 C
74 H74    -5.7509    -1.5082     2.3444 H
75 C75    -8.6468    -0.2467     3.6198 C
76 H76   -10.1124     0.8496     2.4777 H
77 H77    -7.0088    -1.3653     4.4694 H
78 H78    -9.2035    -0.1898     4.5504 H
79 C79    -7.1743    -0.7152    -1.2174 C
80 C80    -8.1834    -1.6878    -1.2647 C
81 C81    -6.8655     0.0123    -2.3761 C
82 C82    -8.8733    -1.9225    -2.4524 C
83 H83    -8.4210    -2.2531    -0.3697 H
84 C84    -7.5482    -0.2422    -3.5638 C
85 H85    -6.0929     0.7733    -2.3392 H
86 C86    -8.5580    -1.2061    -3.6093 C
87 H87    -9.6526    -2.6793    -2.4748 H
88 H88    -7.2986     0.3285    -4.4540 H
89 H89    -9.0932    -1.3960    -4.5350 H
90 Cu90     2.4751     0.5196     0.0374 Cu
@<TRIPOS>BOND
1 1 6 Ar
2 1 8 Ar
3 1 27 1
4 2 11 Ar
5 2 13 Ar
6 2 33 1
7 3 15 Ar
8 3 17 Ar
9 3 21 1
10 4 5 Ar
11 4 7 Ar
12 4 19 Ar
13 5 41 1
14 5 46 Ar
15 6 7 Ar
16 6 46 Ar
17 7 90 1
18 8 9 Ar
19 8 12 1
20 9 10 2
21 9 39 1
22 10 11 Ar
23 10 40 1
24 11 12 1
25 12 90 1
26 13 14 Ar
27 13 16 1
28 14 43 1
29 14 44 2
30 15 16 1
31 15 44 Ar
32 16 90 1
33 17 20 Ar
34 17 47 Ar
35 18 19 Ar
36 18 42 1
37 18 47 2
38 19 20 Ar
39 20 90 1
40 21 22 Ar
41 21 26 Ar
42 22 23 Ar
43 22 62 1
44 23 24 Ar
45 23 63 1
46 24 25 Ar
47 24 64 1
48 25 26 Ar
49 25 65 1
50 26 66 1
51 27 28 Ar
52 27 32 Ar
53 28 29 Ar
54 28 53 1
55 29 30 Ar
56 29 54 1
57 30 31 Ar
58 30 55 1
59 31 32 Ar
60 31 56 1
61 32 57 1
62 33 34 Ar
63 33 38 Ar
64 34 35 Ar
65 34 58 1
66 35 36 Ar
67 35 61 1
68 36 37 Ar
69 36 67 1
70 37 38 Ar
71 37 60 1
72 38 59 1
73 44 45 1
74 46 49 1
75 47 48 1
76 49 50 2
77 49 51 1
78 51 52 1
79 67 68 1
80 67 79 1
81 68 69 Ar
82 68 70 Ar
83 69 71 Ar
84 69 72 1
85 70 73 Ar
86 70 74 1
87 71 75 Ar
88 71 76 1
89 73 75 Ar
90 73 77 1
91 75 78 1
92 79 80 Ar
93 79 81 Ar
94 80 82 Ar
95 80 83 1
96 81 84 Ar
97 81 85 1
98 82 86 Ar
99 82 87 1
100 84 86 Ar
101 84 88 1
102 86 89 1
