# Ga_tpfc_py_TD
# Created by GaussView 6.0.16
#

#
#

@<TRIPOS>MOLECULE
Molecule Name
76 86
SMALL
NO_CHARGES


@<TRIPOS>ATOM
1 C1    -3.3290    -1.2453    -0.5459 C
2 C2    -0.0235     2.3989    -0.2985 C
3 C3     3.3956    -1.1430    -0.4050 C
4 C4    -0.6421    -3.6083    -0.6651 C
5 C5    -1.7099    -4.5406    -0.8256 C
6 C6    -2.8966    -3.8167    -0.7870 C
7 C7    -2.5557    -2.4304    -0.6143 C
8 N8    -1.1971    -2.3633    -0.5365 N
9 C9    -2.7814     0.0565    -0.4742 C
10 C10    -3.4971     1.3043    -0.5091 C
11 C11    -2.5823     2.3262    -0.4435 C
12 C12    -1.2723     1.7379    -0.3632 C
13 N13    -1.4281     0.3676    -0.3775 N
14 C14     1.2453     1.7753    -0.3132 C
15 C15     2.5404     2.4015    -0.2743 C
16 C16     3.4870     1.4086    -0.3034 C
17 C17     2.8081     0.1410    -0.3619 C
18 N18     1.4419     0.4102    -0.3586 N
19 C19     2.6602    -2.3523    -0.4864 C
20 C20     3.0517    -3.7213    -0.6807 C
21 C21     1.8905    -4.4831    -0.7665 C
22 C22     0.7885    -3.5899    -0.6182 C
23 N23     1.2997    -2.3326    -0.4331 N
24 C24     4.8747    -1.2539    -0.3463 C
25 C25     5.4938    -1.9069     0.7250 C
26 C26     6.8735    -2.0595     0.8034 C
27 C27     7.6786    -1.5427    -0.2074 C
28 C28     7.0964    -0.8812    -1.2842 C
29 C29     5.7124    -0.7497    -1.3457 C
30 F30     4.7511    -2.3969     1.7331 F
31 F31     7.4318    -2.6856     1.8477 F
32 F32     9.0065    -1.6788    -0.1417 F
33 F33     7.8693    -0.3886    -2.2602 F
34 F34     5.1906    -0.1199    -2.4074 F
35 C35    -0.0552     3.8833    -0.2054 C
36 C36     0.4559     4.7034    -1.2163 C
37 C37     0.4303     6.0918    -1.1276 C
38 C38    -0.1320     6.6996    -0.0095 C
39 C39    -0.6559     5.9139     1.0123 C
40 C40    -0.6066     4.5280     0.9072 C
41 F41     0.9941     4.1580    -2.3165 F
42 F42     0.9303     6.8452    -2.1155 F
43 F43    -0.1676     8.0327     0.0841 F
44 F44    -1.1903     6.4960     2.0942 F
45 F45    -1.1077     3.8070     1.9224 F
46 C46    -4.8077    -1.3734    -0.5200 C
47 C47    -5.5440    -0.9662     0.5981 C
48 C48    -6.9280    -1.0832     0.6575 C
49 C49    -7.6162    -1.6365    -0.4183 C
50 C50    -6.9144    -2.0613    -1.5420 C
51 C51    -5.5302    -1.9238    -1.5829 C
52 F52    -4.9131    -0.4517     1.6684 F
53 F53    -7.5994    -0.6829     1.7451 F
54 F54    -8.9463    -1.7598    -0.3708 F
55 F55    -7.5754    -2.5870    -2.5808 F
56 F56    -4.8942    -2.3341    -2.6893 F
57 Ga57     0.0213    -0.8929    -0.1071 Ga
58 H58    -1.6094    -5.6097    -0.9599 H
59 H59    -4.5695     1.4031    -0.6054 H
60 H60    -2.7913     3.3862    -0.4790 H
61 H61     2.7223     3.4660    -0.2344 H
62 H62     4.5595     1.5414    -0.2902 H
63 H63     4.0676    -4.0813    -0.7753 H
64 H64    -3.8963    -4.2161    -0.8927 H
65 H65     1.8290    -5.5503    -0.9350 H
66 C66    -1.1682    -0.7663     2.6911 C
67 C67    -1.2367    -0.8472     4.0764 C
68 C68    -0.0823    -1.1706     4.7889 C
69 C69     1.1024    -1.4055     4.0911 C
70 C70     1.0937    -1.3092     2.7051 C
71 N71    -0.0228    -0.9945     2.0233 N
72 H72    -0.1056    -1.2400     5.8721 H
73 H73    -2.0373    -0.5193     2.0915 H
74 H74    -2.1784    -0.6586     4.5799 H
75 H75     2.0220    -1.6601     4.6064 H
76 H76     1.9872    -1.4879     2.1169 H
@<TRIPOS>BOND
1 1 7 Ar
2 1 9 Ar
3 1 46 1
4 2 12 Ar
5 2 14 Ar
6 2 35 1
7 3 17 Ar
8 3 19 Ar
9 3 24 1
10 4 5 Ar
11 4 8 Ar
12 4 22 Ar
13 5 6 Ar
14 5 58 1
15 6 7 Ar
16 6 64 1
17 7 8 Ar
18 8 57 1
19 9 10 Ar
20 9 13 1
21 10 11 2
22 10 59 1
23 11 12 Ar
24 11 60 1
25 12 13 Ar
26 13 57 1
27 14 15 Ar
28 14 18 Ar
29 15 16 2
30 15 61 1
31 16 17 Ar
32 16 62 1
33 17 18 1
34 18 57 1
35 19 20 Ar
36 19 23 Ar
37 20 21 Ar
38 20 63 1
39 21 22 Ar
40 21 65 1
41 22 23 Ar
42 23 57 1
43 24 25 Ar
44 24 29 Ar
45 25 26 Ar
46 25 30 1
47 26 27 Ar
48 26 31 1
49 27 28 Ar
50 27 32 1
51 28 29 Ar
52 28 33 1
53 29 34 1
54 35 36 Ar
55 35 40 Ar
56 36 37 Ar
57 36 41 1
58 37 38 Ar
59 37 42 1
60 38 39 Ar
61 38 43 1
62 39 40 Ar
63 39 44 1
64 40 45 1
65 46 47 Ar
66 46 51 Ar
67 47 48 Ar
68 47 52 1
69 48 49 Ar
70 48 53 1
71 49 50 Ar
72 49 54 1
73 50 51 Ar
74 50 55 1
75 51 56 1
76 66 67 Ar
77 66 71 Ar
78 66 73 1
79 67 68 Ar
80 67 74 1
81 68 69 Ar
82 68 72 1
83 69 70 Ar
84 69 75 1
85 70 71 Ar
86 70 76 1
