# Ga_tpfc_SO3Na2_TD
# Created by GaussView 6.0.16
#

#
#

@<TRIPOS>MOLECULE
Molecule Name
73 82
SMALL
NO_CHARGES


@<TRIPOS>ATOM
1 C1     3.1255     0.0559    -0.1032 C
2 C2    -0.5292     3.3656    -0.0253 C
3 C3    -3.5821    -0.4986    -0.1601 C
4 C4     0.6875    -2.5724    -0.2410 C
5 C5     1.8261    -3.4042    -0.3877 C
6 C6     2.9525    -2.5773    -0.3647 C
7 C7     2.4941    -1.2092    -0.1937 C
8 N8     1.1246    -1.2745    -0.1267 N
9 C9     2.4405     1.2886    -0.0595 C
10 C10     3.0321     2.5965     0.0313 C
11 C11     2.0255     3.5282     0.0448 C
12 C12     0.7743     2.8280    -0.0312 C
13 N13     1.0577     1.4727    -0.0935 N
14 C14    -1.7264     2.6195    -0.0601 C
15 C15    -3.0755     3.1111    -0.0878 C
16 C16    -3.9178     2.0295    -0.1252 C
17 C17    -3.1211     0.8331    -0.1216 C
18 N18    -1.7833     1.2356    -0.0843 N
19 C19    -2.7324    -1.6286    -0.1963 C
20 C20    -2.9876    -3.0359    -0.2021 C
21 C21    -1.7523    -3.6794    -0.2287 C
22 C22    -0.7355    -2.6821    -0.2397 C
23 N23    -1.3711    -1.4704    -0.2193 N
24 C24    -5.0483    -0.7379    -0.1509 C
25 C25    -5.6893    -1.3788    -1.2166 C
26 C26    -7.0582    -1.6276    -1.2118 C
27 C27    -7.8263    -1.2272    -0.1226 C
28 C28    -7.2193    -0.5861     0.9533 C
29 C29    -5.8479    -0.3560     0.9315 C
30 F30    -4.9859    -1.7684    -2.2876 F
31 F31    -7.6400    -2.2391    -2.2493 F
32 F32    -9.1415    -1.4586    -0.1084 F
33 F33    -7.9546    -0.2069     2.0057 F
34 F34    -5.2968     0.2472     1.9953 F
35 C35    -0.6534     4.8480     0.0245 C
36 C36    -1.2349     5.4974     1.1180 C
37 C37    -1.3633     6.8812     1.1732 C
38 C38    -0.8923     7.6573     0.1184 C
39 C39    -0.3024     7.0433    -0.9825 C
40 C40    -0.1952     5.6566    -1.0205 C
41 F41    -1.6901     4.7835     2.1584 F
42 F42    -1.9246     7.4694     2.2364 F
43 F43    -1.0047     8.9871     0.1638 F
44 F44     0.1482     7.7873    -1.9989 F
45 F45     0.3712     5.1005    -2.1004 F
46 C46     4.6061     0.1131     0.0222 C
47 C47     5.4331     0.5406    -1.0179 C
48 C48     6.8177     0.5293    -0.9016 C
49 C49     7.4115     0.0744     0.2734 C
50 C50     6.6137    -0.3459     1.3311 C
51 C51     5.2374    -0.2959     1.1897 C
52 F52     4.8942     0.9580    -2.1676 F
53 F53     7.5863     0.9378    -1.9163 F
54 F54     8.7414     0.0453     0.3847 F
55 F55     7.1618    -0.8035     2.4650 F
56 F56     4.4831    -0.7105     2.2566 F
57 Ga57    -0.2499     0.0920    -0.1420 Ga
58 H58     1.8237    -4.4704    -0.5589 H
59 H59     4.0939     2.7912     0.0791 H
60 H60     2.1377     4.6007     0.1123 H
61 H61    -3.3592     4.1536    -0.0927 H
62 H62    -4.9973     2.0541    -0.1685 H
63 H63    -3.9525    -3.5208    -0.2036 H
64 S64     4.6071    -3.2484    -0.6304 S
65 S65    -1.4685    -5.4255    -0.1460 S
66 O66     5.2747    -2.3446    -1.5860 O
67 O67     5.2423    -3.1926     0.7486 O
68 O68    -1.1329    -5.7204     1.3002 O
69 O69    -2.8036    -6.0596    -0.4516 O
70 O70    -0.3837    -5.7255    -1.0927 O
71 O71     4.3769    -4.6344    -1.0753 O
72 Na72    -2.9371    -7.0195     1.5610 Na
73 Na73     4.0592    -2.9524     2.4830 Na
@<TRIPOS>BOND
1 1 7 Ar
2 1 9 Ar
3 1 46 1
4 2 12 Ar
5 2 14 Ar
6 2 35 1
7 3 17 Ar
8 3 19 Ar
9 3 24 1
10 4 5 Ar
11 4 8 Ar
12 4 22 Ar
13 5 6 Ar
14 5 58 1
15 6 7 1
16 6 64 1
17 7 8 Ar
18 8 57 1
19 9 10 Ar
20 9 13 1
21 10 11 2
22 10 59 1
23 11 12 Ar
24 11 60 1
25 12 13 1
26 13 57 1
27 14 15 Ar
28 14 18 1
29 15 16 2
30 15 61 1
31 16 17 Ar
32 16 62 1
33 17 18 1
34 18 57 1
35 19 20 Ar
36 19 23 Ar
37 20 21 Ar
38 20 63 1
39 21 22 Ar
40 21 65 1
41 22 23 Ar
42 23 57 1
43 24 25 Ar
44 24 29 Ar
45 25 26 Ar
46 25 30 1
47 26 27 Ar
48 26 31 1
49 27 28 Ar
50 27 32 1
51 28 29 Ar
52 28 33 1
53 29 34 1
54 35 36 Ar
55 35 40 Ar
56 36 37 Ar
57 36 41 1
58 37 38 Ar
59 37 42 1
60 38 39 Ar
61 38 43 1
62 39 40 Ar
63 39 44 1
64 40 45 1
65 46 47 Ar
66 46 51 Ar
67 47 48 Ar
68 47 52 1
69 48 49 Ar
70 48 53 1
71 49 50 Ar
72 49 54 1
73 50 51 2
74 50 55 1
75 51 56 1
76 64 66 2
77 64 67 Ar
78 64 71 2
79 65 68 Ar
80 65 69 Ar
81 65 70 2
82 67 73 1
