# OHF10C_TD
# Created by GaussView 6.0.16
#

#
#

@<TRIPOS>MOLECULE
Molecule Name
68 75
SMALL
NO_CHARGES


@<TRIPOS>ATOM
1 C1     3.4070    -0.8490    -0.1000 C
2 C2    -0.0118     2.6994    -0.1630 C
3 C3    -3.4365    -0.8093    -0.1150 C
4 C4     0.6618    -3.1950    -0.2001 C
5 C5     1.6692    -4.0798     0.2375 C
6 C6     2.8735    -3.3722     0.2990 C
7 C7     2.6272    -2.0310    -0.0915 C
8 N8     1.2838    -1.9761    -0.4079 N
9 C9     2.8387     0.4344    -0.1674 C
10 C10     3.4894     1.7004    -0.3391 C
11 C11     2.5348     2.6887    -0.3603 C
12 C12     1.2465     2.0845    -0.1955 C
13 N13     1.4771     0.7239    -0.1060 N
14 C14    -1.2623     2.0297    -0.1187 C
15 C15    -2.5517     2.7077    -0.0849 C
16 C16    -3.5087     1.7392    -0.0724 C
17 C17    -2.8171     0.4624    -0.0932 C
18 N18    -1.4524     0.6774    -0.1165 N
19 C19    -2.6965    -2.0099    -0.2069 C
20 C20    -3.0125    -3.3995    -0.1212 C
21 C21    -1.8172    -4.1123    -0.1341 C
22 C22    -0.7531    -3.1744    -0.2353 C
23 N23    -1.3374    -1.9402    -0.3098 N
24 C24    -4.9119    -0.9121    -0.0115 C
25 C25    -5.6712    -1.5400    -1.0059 C
26 C26    -7.0536    -1.6632    -0.9179 C
27 C27    -7.7210    -1.1455     0.1873 C
28 C28    -6.9985    -0.5163     1.1957 C
29 C29    -5.6154    -0.4147     1.0922 C
30 F30    -5.0704    -2.0404    -2.0962 F
31 F31    -7.7459    -2.2643    -1.8944 F
32 F32    -9.0502    -1.2533     0.2806 F
33 F33    -7.6365    -0.0294     2.2680 F
34 F34    -4.9593     0.1751     2.1016 F
35 C35     4.8856    -0.9721    -0.0147 C
36 C36     5.5150    -1.4762     1.1274 C
37 C37     6.8959    -1.6205     1.2112 C
38 C38     7.6933    -1.2378     0.1375 C
39 C39     7.1015    -0.7237    -1.0117 C
40 C40     5.7170    -0.6068    -1.0781 C
41 F41     4.7828    -1.8466     2.1897 F
42 F42     7.4617    -2.1096     2.3218 F
43 F43     9.0218    -1.3625     0.2102 F
44 F44     7.8644    -0.3580    -2.0496 F
45 F45     5.1856    -0.1190    -2.2096 F
46 C46    -0.0217     4.1928    -0.2177 C
47 C47     0.4060     4.9603     0.8822 C
48 C48     0.3883     6.3574     0.8212 C
49 C49    -0.0590     7.0033    -0.3301 C
50 C50    -0.4895     6.2594    -1.4286 C
51 C51    -0.4655     4.8664    -1.3618 C
52 O52     0.8241     4.2922     1.9961 O
53 H53     1.5095    -5.1027     0.5503 H
54 H54     3.8160    -3.7536     0.6637 H
55 H55     0.9283    -1.2950    -1.0669 H
56 H56     4.5546     1.8311    -0.4616 H
57 H57     2.6990     3.7469    -0.5020 H
58 H58     0.7730     0.1184     0.2931 H
59 H59    -2.6983     3.7781    -0.0704 H
60 H60    -4.5809     1.8793    -0.0671 H
61 H61    -4.0081    -3.8133    -0.0422 H
62 H62    -1.7020    -5.1865    -0.0852 H
63 H63    -0.9111    -1.0076    -0.2419 H
64 H64     0.7189     6.9352     1.6823 H
65 H65    -0.0696     8.0892    -0.3632 H
66 H66    -0.8375     6.7561    -2.3290 H
67 H67    -0.7947     4.2747    -2.2109 H
68 H68     1.0731     4.9411     2.6745 H
@<TRIPOS>BOND
1 1 7 Ar
2 1 9 Ar
3 1 35 1
4 2 12 Ar
5 2 14 Ar
6 2 46 1
7 3 17 Ar
8 3 19 Ar
9 3 24 1
10 4 5 Ar
11 4 8 1
12 4 22 Ar
13 5 6 Ar
14 5 53 1
15 6 7 Ar
16 6 54 1
17 7 8 Ar
18 8 55 1
19 9 10 Ar
20 9 13 1
21 10 11 2
22 10 56 1
23 11 12 Ar
24 11 57 1
25 12 13 1
26 13 58 1
27 14 15 1
28 14 18 Ar
29 15 16 2
30 15 59 1
31 16 17 1
32 16 60 1
33 17 18 Ar
34 19 20 Ar
35 19 23 Ar
36 20 21 Ar
37 20 61 1
38 21 22 Ar
39 21 62 1
40 22 23 Ar
41 23 63 1
42 24 25 Ar
43 24 29 Ar
44 25 26 Ar
45 25 30 1
46 26 27 Ar
47 26 31 1
48 27 28 Ar
49 27 32 1
50 28 29 Ar
51 28 33 1
52 29 34 1
53 35 36 Ar
54 35 40 Ar
55 36 37 Ar
56 36 41 1
57 37 38 Ar
58 37 42 1
59 38 39 Ar
60 38 43 1
61 39 40 Ar
62 39 44 1
63 40 45 1
64 46 47 Ar
65 46 51 Ar
66 47 48 Ar
67 47 52 1
68 48 49 Ar
69 48 64 1
70 49 50 Ar
71 49 65 1
72 50 51 Ar
73 50 66 1
74 51 67 1
75 52 68 1
