# 151f_NO_TD
# Created by GaussView 6.0.16
#

#
#

@<TRIPOS>MOLECULE
Molecule Name
80 88
SMALL
NO_CHARGES


@<TRIPOS>ATOM
1 C1     3.6050    -1.9427    -0.0927 C
2 C2    -0.0988     1.3081    -0.0859 C
3 C3    -3.2204    -2.4648    -0.0146 C
4 C4     1.0567    -4.4991    -0.2438 C
5 C5     2.1244    -5.2984     0.2172 C
6 C6     3.2641    -4.4938     0.2975 C
7 C7     2.9160    -3.1812    -0.1091 C
8 N8     1.5827    -3.2384    -0.4549 N
9 C9     2.9314    -0.7090    -0.1455 C
10 C10     3.4660     0.5978    -0.3836 C
11 C11     2.4322     1.5032    -0.3896 C
12 C12     1.2071     0.7995    -0.1522 C
13 N13     1.5548    -0.5311    -0.0297 N
14 C14    -1.2911     0.5413    -0.0075 C
15 C15    -2.6295     1.1094     0.0866 C
16 C16    -3.5022     0.0654     0.1056 C
17 C17    -2.7086    -1.1484     0.0273 C
18 N18    -1.3673    -0.8197    -0.0323 N
19 C19    -2.3866    -3.5958    -0.1705 C
20 C20    -2.5833    -5.0066    -0.0862 C
21 C21    -1.3339    -5.6174    -0.1399 C
22 C22    -0.3562    -4.5935    -0.2676 C
23 N23    -1.0423    -3.4117    -0.3245 N
24 C24    -0.2242     2.7897    -0.1228 C
25 C25     0.2965     3.6078     0.8834 C
26 C26     0.2025     4.9910     0.8482 C
27 C27    -1.0111     4.8442    -1.1868 C
28 C28    -0.8629     3.4652    -1.1662 C
29 H29     2.0401    -6.3286     0.5352 H
30 H30     4.2310    -4.7886     0.6806 H
31 H31     1.1666    -2.5676    -1.0873 H
32 H32     4.5089     0.8061    -0.5756 H
33 H33     2.5016     2.5645    -0.5796 H
34 H34     0.9108    -1.1935     0.3807 H
35 H35    -2.8671     2.1623     0.1407 H
36 H36    -4.5815     0.1149     0.1493 H
37 H37    -3.5376    -5.5022     0.0246 H
38 H38    -1.1276    -6.6781    -0.0989 H
39 H39    -0.6914    -2.4485    -0.2506 H
40 C40    -0.4738     5.6769    -0.1825 C
41 F41     0.9533     3.0566     1.9199 F
42 F42     0.8047     5.6873     1.8389 F
43 F43    -1.4001     2.7676    -2.1830 F
44 F44    -1.7126     5.3850    -2.2088 F
45 N45    -0.5990     7.0471    -0.2035 N
46 C46    -0.6792     7.8396     1.0294 C
47 C47    -0.6758     7.8038    -1.4589 C
48 C48    -1.4958     9.0959     0.7562 C
49 H49     0.3144     8.1169     1.4033 H
50 C50    -0.1520     9.2138    -1.2173 C
51 H51    -1.7013     7.8513    -1.8460 H
52 H52    -1.5628     9.6967     1.6691 H
53 H53    -0.2047     9.7887    -2.1475 H
54 O54    -0.9139     9.9281    -0.2460 O
55 H55    -1.1767     7.2557     1.8084 H
56 H56    -2.5179     8.8109     0.4637 H
57 H57     0.9037     9.1644    -0.9097 H
58 H58    -0.0561     7.3173    -2.2173 H
59 C59     5.0783    -1.9597     0.0144 C
60 C60     5.8674    -2.7246    -0.8570 C
61 C61     5.7631    -1.2410     1.0052 C
62 C62     7.2528    -2.7743    -0.7549 C
63 C63     7.1489    -1.2660     1.1155 C
64 C64     7.8982    -2.0383     0.2337 C
65 C65    -4.6772    -2.6948     0.1358 C
66 C66    -5.4152    -3.3614    -0.8495 C
67 C67    -5.3802    -2.2854     1.2751 C
68 C68    -6.7785    -3.6024    -0.7193 C
69 C69    -6.7454    -2.5065     1.4218 C
70 C70    -7.4476    -3.1703     0.4211 C
71 F71     9.2297    -2.0733     0.3356 F
72 F72     7.9692    -3.5103    -1.6138 F
73 F73     5.2946    -3.4290    -1.8441 F
74 F74     5.0857    -0.5097     1.9018 F
75 F75     7.7639    -0.5684     2.0785 F
76 F76    -4.7406    -1.6665     2.2778 F
77 F77    -7.3836    -2.1005     2.5269 F
78 F78    -8.7587    -3.3924     0.5547 F
79 F79    -7.4518    -4.2358    -1.6883 F
80 F80    -4.8126    -3.7832    -1.9713 F
@<TRIPOS>BOND
1 1 7 Ar
2 1 9 Ar
3 1 59 1
4 2 12 Ar
5 2 14 Ar
6 2 24 1
7 3 17 Ar
8 3 19 Ar
9 3 65 1
10 4 5 Ar
11 4 8 1
12 4 22 Ar
13 5 6 Ar
14 5 29 1
15 6 7 Ar
16 6 30 1
17 7 8 Ar
18 8 31 1
19 9 10 Ar
20 9 13 1
21 10 11 2
22 10 32 1
23 11 12 Ar
24 11 33 1
25 12 13 Ar
26 13 34 1
27 14 15 1
28 14 18 Ar
29 15 16 2
30 15 35 1
31 16 17 1
32 16 36 1
33 17 18 1
34 19 20 Ar
35 19 23 Ar
36 20 21 Ar
37 20 37 1
38 21 22 Ar
39 21 38 1
40 22 23 Ar
41 23 39 1
42 24 25 Ar
43 24 28 Ar
44 25 26 Ar
45 25 41 1
46 26 40 Ar
47 26 42 1
48 27 28 Ar
49 27 40 Ar
50 27 44 1
51 28 43 1
52 40 45 Ar
53 45 46 1
54 45 47 1
55 46 48 1
56 46 49 1
57 46 55 1
58 47 50 1
59 47 51 1
60 47 58 1
61 48 52 1
62 48 54 1
63 48 56 1
64 50 53 1
65 50 54 1
66 50 57 1
67 59 60 Ar
68 59 61 Ar
69 60 62 Ar
70 60 73 1
71 61 63 Ar
72 61 74 1
73 62 64 Ar
74 62 72 1
75 63 64 Ar
76 63 75 1
77 64 71 1
78 65 66 Ar
79 65 67 Ar
80 66 68 Ar
81 66 80 1
82 67 69 Ar
83 67 76 1
84 68 70 Ar
85 68 79 1
86 69 70 Ar
87 69 77 1
88 70 78 1
