# 4MePh3_COOH_TD
# Created by GaussView 6.0.16
#

#
#

@<TRIPOS>MOLECULE
Molecule Name
79 86
SMALL
NO_CHARGES


@<TRIPOS>ATOM
1 C1     3.2396    -0.4245    -0.1191 C
2 C2    -0.6746     2.5956     0.0372 C
3 C3    -3.5861    -1.3539    -0.1263 C
4 C4     0.8244    -3.1173    -0.3989 C
5 C5     1.8920    -3.8811     0.0796 C
6 C6     2.9926    -3.0213     0.2772 C
7 C7     2.6111    -1.7056    -0.1201 C
8 N8     1.3060    -1.8278    -0.5415 N
9 C9     2.4727     0.7532    -0.1265 C
10 C10     2.9105     2.0960    -0.3871 C
11 C11     1.8275     2.9358    -0.3336 C
12 C12     0.6538     2.1587    -0.0471 C
13 N13     1.0918     0.8490     0.0531 N
14 C14    -1.8248     1.7528     0.0855 C
15 C15    -3.1917     2.2366     0.2099 C
16 C16    -4.0063     1.1445     0.1553 C
17 C17    -3.1478    -0.0166     0.0178 C
18 N18    -1.8233     0.3948    -0.0110 N
19 C19    -2.6736    -2.4162    -0.3531 C
20 C20    -2.7822    -3.8364    -0.3357 C
21 C21    -1.4947    -4.3677    -0.4111 C
22 C22    -0.5863    -3.2822    -0.4731 C
23 N23    -1.3376    -2.1420    -0.4822 N
24 C24    -5.0238    -1.6918    -0.0116 C
25 C25    -5.6562    -2.4716    -0.9960 C
26 C26    -7.0019    -2.8060    -0.8878 C
27 C27    -7.1378    -1.6110     1.1889 C
28 C28    -5.7897    -1.2731     1.0873 C
29 C29     4.7136    -0.3331    -0.1760 C
30 C30     5.4342     0.5346     0.6574 C
31 C31     6.8244     0.5986     0.5919 C
32 C32     6.8262    -1.0756    -1.1272 C
33 C33     5.4392    -1.1393    -1.0708 C
34 C34    -0.8839     4.0722     0.0313 C
35 C35    -0.3144     4.8822     1.0260 C
36 C36    -0.5055     6.2619     1.0236 C
37 C37    -1.2709     6.8849     0.0296 C
38 H38     1.8557    -4.9214     0.3696 H
39 H39     0.8699    -1.1379    -1.1390 H
40 H40     3.9268     2.3638    -0.6348 H
41 H41     1.8225     3.9987    -0.5240 H
42 H42     0.4973     0.1321     0.4456 H
43 H43    -3.4875     3.2693     0.3237 H
44 H44    -5.0864     1.1305     0.1852 H
45 H45    -3.7051    -4.3910    -0.2456 H
46 H46    -1.2214    -5.4140    -0.4140 H
47 H47    -1.0479    -1.1629    -0.3472 H
48 C48    -1.8370     6.0766    -0.9641 C
49 C49    -1.6460     4.6967    -0.9677 C
50 H50    -2.4320     6.5352    -1.7504 H
51 H51    -0.0611     6.8643     1.8126 H
52 H52     0.2697     4.4186     1.8156 H
53 H53    -2.0869     4.0924    -1.7548 H
54 H54     7.3615    -1.7083    -1.8316 H
55 H55     4.9046    -1.8161    -1.7308 H
56 H56     4.9016     1.1405     1.3835 H
57 H57     7.3586     1.2739     1.2561 H
58 H58    -5.0863    -2.7974    -1.8608 H
59 H59    -7.4689    -3.4014    -1.6691 H
60 H60    -7.7062    -1.2801     2.0545 H
61 H61    -5.3161    -0.6975     1.8762 H
62 C62    -7.7700    -2.3797     0.2051 C
63 C63     7.5473    -0.2034    -0.2984 C
64 C64     4.2203    -3.4994     0.9298 C
65 O65     4.8314    -2.5637     1.6893 O
66 H66     5.6453    -2.9801     2.0321 H
67 O67     4.6324    -4.6429     0.8500 O
68 C68    -1.4557     8.3816     0.0173 C
69 H69    -1.5236     8.7857     1.0333 H
70 H70    -0.6110     8.8829    -0.4743 H
71 H71    -2.3635     8.6693    -0.5232 H
72 C72     9.0517    -0.1353    -0.3749 C
73 H73     9.5062    -1.1230    -0.2290 H
74 H74     9.3854     0.2265    -1.3560 H
75 H75     9.4615     0.5385     0.3842 H
76 C76    -9.2324    -2.7332     0.3045 C
77 H77    -9.8180    -2.2244    -0.4723 H
78 H78    -9.3950    -3.8097     0.1731 H
79 H79    -9.6483    -2.4448     1.2749 H
@<TRIPOS>BOND
1 1 7 Ar
2 1 9 Ar
3 1 29 1
4 2 12 Ar
5 2 14 Ar
6 2 34 1
7 3 17 Ar
8 3 19 Ar
9 3 24 1
10 4 5 Ar
11 4 8 1
12 4 22 Ar
13 5 6 Ar
14 5 38 1
15 6 7 Ar
16 6 64 1
17 7 8 Ar
18 8 39 1
19 9 10 Ar
20 9 13 1
21 10 11 2
22 10 40 1
23 11 12 Ar
24 11 41 1
25 12 13 1
26 13 42 1
27 14 15 1
28 14 18 Ar
29 15 16 2
30 15 43 1
31 16 17 1
32 16 44 1
33 17 18 1
34 19 20 Ar
35 19 23 Ar
36 20 21 Ar
37 20 45 1
38 21 22 Ar
39 21 46 1
40 22 23 Ar
41 23 47 1
42 24 25 Ar
43 24 28 Ar
44 25 26 Ar
45 25 58 1
46 26 59 1
47 26 62 Ar
48 27 28 Ar
49 27 60 1
50 27 62 Ar
51 28 61 1
52 29 30 Ar
53 29 33 Ar
54 30 31 Ar
55 30 56 1
56 31 57 1
57 31 63 Ar
58 32 33 Ar
59 32 54 1
60 32 63 Ar
61 33 55 1
62 34 35 Ar
63 34 49 Ar
64 35 36 Ar
65 35 52 1
66 36 37 Ar
67 36 51 1
68 37 48 Ar
69 37 68 1
70 48 49 Ar
71 48 50 1
72 49 53 1
73 62 76 1
74 63 72 1
75 64 65 1
76 64 67 2
77 65 66 1
78 68 69 1
79 68 70 1
80 68 71 1
81 72 73 1
82 72 74 1
83 72 75 1
84 76 77 1
85 76 78 1
86 76 79 1
