# 158_a_s_TD
# Created by GaussView 6.0.16
#

#
#

@<TRIPOS>MOLECULE
Molecule Name
124 131
SMALL
NO_CHARGES


@<TRIPOS>ATOM
1 C1     2.3804    -2.7226    -0.1160 C
2 C2     0.3864     1.7739     0.1467 C
3 C3    -4.0298    -0.3238    -0.0459 C
4 C4    -1.0000    -3.9591    -0.3931 C
5 C5    -0.3707    -5.1696    -0.0325 C
6 C6     1.0010    -4.9286     0.0856 C
7 C7     1.2416    -3.5592    -0.1942 C
8 N8     0.0084    -3.0200    -0.5045 N
9 C9     2.2893    -1.3213    -0.0789 C
10 C10     3.3348    -0.3459    -0.1741 C
11 C11     2.7775     0.9077    -0.1111 C
12 C12     1.3596     0.7706     0.0386 C
13 N13     1.1081    -0.5866     0.0323 N
14 C14    -1.0186     1.5830     0.1698 C
15 C15    -1.9945     2.6572     0.2896 C
16 C16    -3.2257     2.0794     0.2397 C
17 C17    -3.0144     0.6492     0.0905 C
18 N18    -1.6577     0.3846     0.0616 N
19 C19    -3.7442    -1.6921    -0.2644 C
20 C20    -4.5212    -2.8888    -0.3000 C
21 C21    -3.6446    -3.9665    -0.3889 C
22 C22    -2.3210    -3.4481    -0.4155 C
23 N23    -2.4429    -2.0866    -0.3771 N
24 C24    -5.4526     0.0744     0.0655 C
25 C25    -6.3646    -0.1664    -0.9681 C
26 C26    -7.7018     0.1948    -0.8674 C
27 C27    -7.3100     1.0296     1.3260 C
28 C28    -5.9684     0.6810     1.2154 C
29 F29    -5.9489    -0.7372    -2.1114 F
30 F30    -8.5017    -0.0377    -1.9227 F
31 F31    -7.7247     1.5917     2.4706 F
32 F32    -5.1679     0.9202     2.2668 F
33 C33     3.7327    -3.3317    -0.0328 C
34 C34     4.1374    -4.0824     1.0730 C
35 C35     5.4277    -4.5905     1.1874 C
36 C36     5.9772    -3.6418    -0.9258 C
37 C37     4.6871    -3.1409    -1.0364 C
38 F38     3.2762    -4.3069     2.0806 F
39 F39     5.7406    -5.2754     2.2957 F
40 F40     6.8409    -3.3972    -1.9256 F
41 F41     4.3687    -2.4433    -2.1407 F
42 C42     0.9174     3.1639     0.1918 C
43 C43     1.7158     3.6124     1.2477 C
44 C44     2.2804     4.8810     1.2572 C
45 C45     2.1165     5.7639     0.1860 C
46 C46     1.2950     5.3296    -0.8602 C
47 C47     0.7145     4.0667    -0.8548 C
48 H48    -0.8818    -6.0947     0.1965 H
49 H49     1.7456    -5.6371     0.4181 H
50 H50    -0.0767    -2.2013    -1.0936 H
51 H51     4.3812    -0.5707    -0.3101 H
52 H52     3.3027     1.8469    -0.1935 H
53 H53     0.2391    -0.9413     0.4083 H
54 H54    -1.7677     3.7081     0.4034 H
55 H55    -4.1843     2.5778     0.2799 H
56 H56    -5.5997    -2.9382    -0.2470 H
57 H57    -3.9072    -5.0145    -0.4358 H
58 H58    -1.7229    -1.3691    -0.2327 H
59 C59     6.3888    -4.3660     0.1979 C
60 C60    -8.2169     0.7897     0.2888 C
61 F61    -0.0285     3.7078    -1.9139 F
62 F62     1.0811     6.1231    -1.9212 F
63 F63     1.9613     2.8045     2.2932 F
64 F64     3.0346     5.2275     2.3172 F
65 S65    -9.9176     1.2756     0.4462 S
66 S66     2.8558     7.3753     0.0988 S
67 S67     8.0538    -4.9644     0.3712 S
68 C68   -10.7798    -0.3241     0.1045 C
69 C69     4.6168     7.1011     0.5834 C
70 C70     8.9451    -3.3418     0.4088 C
71 H71   -10.3748    -1.0782     0.7858 H
72 H72   -10.5673    -0.6268    -0.9228 H
73 H73     4.9837     8.1317     0.6433 H
74 H74     4.6470     6.6846     1.5912 H
75 H75     8.6522    -2.7841    -0.4810 H
76 H76     8.6150    -2.7978     1.2985 H
77 C77   -12.2807    -0.1418     0.3193 C
78 H78   -12.6501     0.6632    -0.3297 H
79 H79   -12.4724     0.1705     1.3538 H
80 C80   -13.0509    -1.4332     0.0172 C
81 H81   -12.8338    -1.7440    -1.0126 H
82 H82   -12.6828    -2.2382     0.6696 H
83 C83   -14.5633    -1.2764     0.2096 C
84 H84   -14.9355    -0.5018    -0.4768 H
85 H85   -14.7551    -0.9044     1.2255 H
86 C86   -15.3617    -2.5703    -0.0047 C
87 H87   -16.4139    -2.3780     0.2434 H
88 H88   -15.0135    -3.3310     0.7085 H
89 C89   -15.2792    -3.1306    -1.4270 C
90 H90   -15.6044    -2.3857    -2.1645 H
91 H91   -14.2594    -3.4330    -1.6898 H
92 H92   -15.9209    -4.0121    -1.5412 H
93 C93    10.4522    -3.5826     0.4345 C
94 H94    10.6972    -4.2721     1.2526 H
95 H95    10.7510    -4.0793    -0.4975 H
96 C96    11.2771    -2.2963     0.6127 C
97 H97    11.0629    -1.8595     1.5982 H
98 H98    12.3319    -2.5966     0.6393 H
99 C99    11.0836    -1.2226    -0.4768 C
100 H100    10.8752    -1.7095    -1.4409 H
101 H101    12.0300    -0.6827    -0.6149 H
102 C102     9.9938    -0.1829    -0.1780 C
103 H103     9.0235    -0.6733    -0.0336 H
104 H104    10.2285     0.3104     0.7757 H
105 C105     9.8667     0.8702    -1.2799 C
106 H106     9.5690     0.4144    -2.2326 H
107 H107     9.1176     1.6278    -1.0249 H
108 H108    10.8200     1.3878    -1.4452 H
109 C109     5.4843     6.2952    -0.3848 C
110 H110     5.3812     6.7006    -1.3989 H
111 H111     6.5266     6.4766    -0.0823 H
112 C112     5.2417     4.7810    -0.3946 C
113 H113     5.2186     4.4178     0.6415 H
114 H114     4.2583     4.5615    -0.8269 H
115 C115     6.3130     4.0294    -1.1931 C
116 H116     7.3052     4.2732    -0.7853 H
117 H117     6.3078     4.4004    -2.2271 H
118 C118     6.1422     2.5035    -1.2062 C
119 H119     5.1558     2.2476    -1.6178 H
120 H120     6.8786     2.0751    -1.8981 H
121 C121     6.3135     1.8489     0.1680 C
122 H122     7.2663     2.1414     0.6270 H
123 H123     5.5155     2.1299     0.8640 H
124 H124     6.3094     0.7554     0.0904 H
@<TRIPOS>BOND
1 1 7 Ar
2 1 9 Ar
3 1 33 1
4 2 12 Ar
5 2 14 Ar
6 2 42 1
7 3 17 Ar
8 3 19 Ar
9 3 24 1
10 4 5 Ar
11 4 8 1
12 4 22 Ar
13 5 6 Ar
14 5 48 1
15 6 7 Ar
16 6 49 1
17 7 8 Ar
18 8 50 1
19 9 10 Ar
20 9 13 1
21 10 11 2
22 10 51 1
23 11 12 Ar
24 11 52 1
25 12 13 Ar
26 13 53 1
27 14 15 1
28 14 18 Ar
29 15 16 2
30 15 54 1
31 16 17 1
32 16 55 1
33 17 18 1
34 19 20 Ar
35 19 23 Ar
36 20 21 Ar
37 20 56 1
38 21 22 Ar
39 21 57 1
40 22 23 Ar
41 23 58 1
42 24 25 Ar
43 24 28 Ar
44 25 26 Ar
45 25 29 1
46 26 30 1
47 26 60 Ar
48 27 28 Ar
49 27 31 1
50 27 60 Ar
51 28 32 1
52 33 34 Ar
53 33 37 Ar
54 34 35 Ar
55 34 38 1
56 35 39 1
57 35 59 Ar
58 36 37 Ar
59 36 40 1
60 36 59 Ar
61 37 41 1
62 42 43 Ar
63 42 47 Ar
64 43 44 Ar
65 43 63 1
66 44 45 Ar
67 44 64 1
68 45 46 Ar
69 45 66 1
70 46 47 Ar
71 46 62 1
72 47 61 1
73 59 67 1
74 60 65 1
75 65 68 1
76 66 69 1
77 67 70 1
78 68 71 1
79 68 72 1
80 68 77 1
81 69 73 1
82 69 74 1
83 69 109 1
84 70 75 1
85 70 76 1
86 70 93 1
87 77 78 1
88 77 79 1
89 77 80 1
90 80 81 1
91 80 82 1
92 80 83 1
93 83 84 1
94 83 85 1
95 83 86 1
96 86 87 1
97 86 88 1
98 86 89 1
99 89 90 1
100 89 91 1
101 89 92 1
102 93 94 1
103 93 95 1
104 93 96 1
105 96 97 1
106 96 98 1
107 96 99 1
108 99 100 1
109 99 101 1
110 99 102 1
111 102 103 1
112 102 104 1
113 102 105 1
114 105 106 1
115 105 107 1
116 105 108 1
117 109 110 1
118 109 111 1
119 109 112 1
120 112 113 1
121 112 114 1
122 112 115 1
123 115 116 1
124 115 117 1
125 115 118 1
126 118 119 1
127 118 120 1
128 118 121 1
129 121 122 1
130 121 123 1
131 121 124 1
