# 158_b_sh_TD
# Created by GaussView 6.0.16
#

#
#

@<TRIPOS>MOLECULE
Molecule Name
118 125
SMALL
NO_CHARGES


@<TRIPOS>ATOM
1 C1     2.2497    -2.7990    -0.1424 C
2 C2     0.4186     1.7681     0.0961 C
3 C3    -4.0694    -0.1665    -0.1114 C
4 C4    -1.1704    -3.9100    -0.4424 C
5 C5    -0.5919    -5.1383    -0.0566 C
6 C6     0.7870    -4.9492     0.0702 C
7 C7     1.0829    -3.5944    -0.2279 C
8 N8    -0.1254    -3.0132    -0.5601 N
9 C9     2.2080    -1.3951    -0.1149 C
10 C10     3.2910    -0.4598    -0.1920 C
11 C11     2.7765     0.8125    -0.1376 C
12 C12     1.3527     0.7279    -0.0094 C
13 N13     1.0517    -0.6186    -0.0246 N
14 C14    -0.9921     1.6319     0.1044 C
15 C15    -1.9281     2.7415     0.2169 C
16 C16    -3.1794     2.2090     0.1621 C
17 C17    -3.0200     0.7714     0.0176 C
18 N18    -1.6741     0.4577    -0.0080 N
19 C19    -3.8319    -1.5445    -0.3293 C
20 C20    -4.6495    -2.7143    -0.3485 C
21 C21    -3.8113    -3.8220    -0.4332 C
22 C22    -2.4710    -3.3498    -0.4743 C
23 N23    -2.5455    -1.9841    -0.4515 N
24 C24    -5.4761     0.2794     0.0215 C
25 C25    -6.4177     0.0557    -0.9896 C
26 C26    -7.7408     0.4589    -0.8644 C
27 C27    -7.2751     1.3092     1.3086 C
28 C28    -5.9484     0.9151     1.1748 C
29 F29    -6.0453    -0.5416    -2.1342 F
30 F30    -8.5721     0.2359    -1.8971 F
31 F31    -7.6469     1.8975     2.4547 F
32 F32    -5.1209     1.1381     2.2086 F
33 C33     3.5806    -3.4473    -0.0233 C
34 C34     3.9432    -4.1843     1.1060 C
35 C35     5.2230    -4.7052     1.2662 C
36 C36     5.8420    -3.8077    -0.8509 C
37 C37     4.5627    -3.2910    -1.0054 C
38 F38     3.0521    -4.3752     2.0946 F
39 F39     5.4990    -5.3691     2.3970 F
40 F40     6.7344    -3.5964    -1.8328 F
41 F41     4.2848    -2.6074    -2.1288 F
42 C42     1.0119     3.1312     0.1714 C
43 C43     1.8184     3.5169     1.2461 C
44 C44     2.4636     4.7455     1.2805 C
45 C45     2.3745     5.6488     0.2175 C
46 C46     1.5397     5.2822    -0.8442 C
47 C47     0.8783     4.0596    -0.8636 C
48 H48    -1.1407    -6.0388     0.1831 H
49 H49     1.5011    -5.6798     0.4216 H
50 H50    -0.1724    -2.1989    -1.1593 H
51 H51     4.3338    -0.7175    -0.2995 H
52 H52     3.3310     1.7356    -0.2117 H
53 H53     0.1666    -0.9416     0.3422 H
54 H54    -1.6629     3.7837     0.3293 H
55 H55    -4.1189     2.7428     0.1959 H
56 H56    -5.7285    -2.7271    -0.2862 H
57 H57    -4.1098    -4.8608    -0.4671 H
58 H58    -1.8006    -1.2909    -0.3123 H
59 C59     6.2139    -4.5094     0.3002 C
60 C60    -8.2109     1.0859     0.2939 C
61 F61     0.1297     3.7624    -1.9376 F
62 F62     1.3921     6.1017    -1.8967 F
63 F63     1.9984     2.6811     2.2832 F
64 F64     3.2210     5.0297     2.3564 F
65 S65    -9.8914     1.6287     0.4803 S
66 S66     3.2165     7.2101     0.1594 S
67 S67     7.8741    -5.0914     0.5535 S
68 C68   -10.8079     0.0484     0.1973 C
69 C69     4.9438     6.8277     0.6887 C
70 C70     8.7486    -3.4601     0.5197 C
71 H71   -10.3925    -0.7073     0.8705 H
72 H72   -10.6493    -0.2730    -0.8341 H
73 H73     5.3681     7.8348     0.7644 H
74 H74     4.9250     6.4058     1.6944 H
75 H75     8.5862    -3.0202    -0.4644 H
76 H76     8.2873    -2.8214     1.2788 H
77 C77   -12.2918     0.2753     0.4780 C
78 H78   -12.6721     1.0727    -0.1737 H
79 H79   -12.4241     0.6183     1.5120 H
80 C80   -13.1094    -1.0015     0.2491 C
81 H81   -12.9569    -1.3436    -0.7825 H
82 H82   -12.7332    -1.7988     0.9062 H
83 C83   -14.6032    -0.7905     0.5081 C
84 H84   -14.9965    -0.0343    -0.1825 H
85 H85   -14.7384    -0.3934     1.5247 H
86 C86   -15.4473    -2.0609     0.4023 C
87 H87   -16.4887    -1.8444     0.6597 H
88 H88   -15.0954    -2.8284     1.0992 H
89 H89   -14.2699    -3.2075    -1.3783 H
90 C90    10.2357    -3.6589     0.7991 C
91 H91    10.3578    -4.2325     1.7265 H
92 H92    10.6791    -4.2581    -0.0065 H
93 C93    11.0113    -2.3376     0.9364 C
94 H94    10.6296    -1.7788     1.8023 H
95 H95    12.0495    -2.5956     1.1771 H
96 C96    11.0049    -1.4293    -0.3110 C
97 H97    10.9856    -2.0400    -1.2223 H
98 H98    11.9431    -0.8612    -0.3430 H
99 C99     9.8489    -0.4267    -0.3406 C
100 H100     8.8747    -0.9203    -0.3593 H
101 H101     9.8646     0.2151     0.5452 H
102 H102    11.0211     1.2478    -1.6191 H
103 C103     5.7893     5.9807    -0.2634 C
104 H104     5.7244     6.3910    -1.2785 H
105 H105     6.8331     6.1102     0.0584 H
106 C106     5.4775     4.4789    -0.2820 C
107 H107     5.4342     4.1099     0.7515 H
108 H108     4.4902     4.3032    -0.7259 H
109 C109     6.5272     3.6943    -1.0739 C
110 H110     7.5274     3.8966    -0.6709 H
111 H111     6.5297     4.0522    -2.1137 H
112 C112     6.3093     2.1824    -1.1139 C
113 H113     5.3159     1.9250    -1.4949 H
114 H114     7.0442     1.7192    -1.7770 H
115 H115     5.4236     1.6885     1.0967 H
116 S116     9.8353     0.6408    -1.8443 S
117 S117     6.5703     1.3104     0.4935 S
118 S118   -15.5538    -2.8017    -1.2857 S
@<TRIPOS>BOND
1 1 7 Ar
2 1 9 Ar
3 1 33 1
4 2 12 Ar
5 2 14 Ar
6 2 42 1
7 3 17 Ar
8 3 19 Ar
9 3 24 1
10 4 5 Ar
11 4 8 1
12 4 22 Ar
13 5 6 Ar
14 5 48 1
15 6 7 Ar
16 6 49 1
17 7 8 Ar
18 8 50 1
19 9 10 Ar
20 9 13 1
21 10 11 2
22 10 51 1
23 11 12 Ar
24 11 52 1
25 12 13 Ar
26 13 53 1
27 14 15 1
28 14 18 Ar
29 15 16 2
30 15 54 1
31 16 17 1
32 16 55 1
33 17 18 1
34 19 20 Ar
35 19 23 Ar
36 20 21 Ar
37 20 56 1
38 21 22 Ar
39 21 57 1
40 22 23 Ar
41 23 58 1
42 24 25 Ar
43 24 28 Ar
44 25 26 Ar
45 25 29 1
46 26 30 1
47 26 60 Ar
48 27 28 Ar
49 27 31 1
50 27 60 Ar
51 28 32 1
52 33 34 Ar
53 33 37 Ar
54 34 35 Ar
55 34 38 1
56 35 39 1
57 35 59 Ar
58 36 37 Ar
59 36 40 1
60 36 59 Ar
61 37 41 1
62 42 43 Ar
63 42 47 Ar
64 43 44 Ar
65 43 63 1
66 44 45 Ar
67 44 64 1
68 45 46 Ar
69 45 66 1
70 46 47 Ar
71 46 62 1
72 47 61 1
73 59 67 1
74 60 65 1
75 65 68 1
76 66 69 1
77 67 70 1
78 68 71 1
79 68 72 1
80 68 77 1
81 69 73 1
82 69 74 1
83 69 103 1
84 70 75 1
85 70 76 1
86 70 90 1
87 77 78 1
88 77 79 1
89 77 80 1
90 80 81 1
91 80 82 1
92 80 83 1
93 83 84 1
94 83 85 1
95 83 86 1
96 86 87 1
97 86 88 1
98 86 118 1
99 89 118 1
100 90 91 1
101 90 92 1
102 90 93 1
103 93 94 1
104 93 95 1
105 93 96 1
106 96 97 1
107 96 98 1
108 96 99 1
109 99 100 1
110 99 101 1
111 99 116 1
112 102 116 1
113 103 104 1
114 103 105 1
115 103 106 1
116 106 107 1
117 106 108 1
118 106 109 1
119 109 110 1
120 109 111 1
121 109 112 1
122 112 113 1
123 112 114 1
124 112 117 1
125 115 117 1
