# 158_G_C_ME
# Created by GaussView 6.0.16
#

#
#

@<TRIPOS>MOLECULE
Molecule Name
124 131
SMALL
NO_CHARGES


@<TRIPOS>ATOM
1 C1     3.0458    -2.0637    -0.5919 C
2 C2    -0.2272     1.5467     0.1216 C
3 C3    -3.7872    -1.7932    -0.2921 C
4 C4     0.2038    -4.2490    -1.0329 C
5 C5     1.1867    -5.2345    -0.8058 C
6 C6     2.4192    -4.5925    -0.6544 C
7 C7     2.2157    -3.1946    -0.7792 C
8 N8     0.8668    -3.0348    -1.0340 N
9 C9     2.5303    -0.7711    -0.4045 C
10 C10     3.2272     0.4804    -0.3736 C
11 C11     2.3148     1.4907    -0.1871 C
12 C12     1.0072     0.9126    -0.0806 C
13 N13     1.1829    -0.4478    -0.2400 N
14 C14    -1.5024     0.9220     0.1239 C
15 C15    -2.7594     1.6220     0.3518 C
16 C16    -3.7529     0.6991     0.2362 C
17 C17    -3.1152    -0.5726    -0.0566 C
18 N18    -1.7433    -0.3988    -0.1072 N
19 C19    -3.0999    -2.9766    -0.6497 C
20 C20    -3.4698    -4.3445    -0.8183 C
21 C21    -2.3072    -5.0800    -1.0297 C
22 C22    -1.2103    -4.1759    -0.9991 C
23 N23    -1.7450    -2.9327    -0.8062 N
24 C24    -5.2608    -1.8625    -0.1528 C
25 C25    -6.0810    -2.2710    -1.2080 C
26 C26    -7.4644    -2.3595    -1.0944 C
27 C27    -7.2997    -1.6056     1.1626 C
28 C28    -5.9197    -1.5468     1.0422 C
29 F29    -5.5378    -2.6071    -2.3908 F
30 F30    -8.1678    -2.7928    -2.1615 F
31 F31    -7.8739    -1.2786     2.3331 F
32 F32    -5.2151    -1.1659     2.1201 F
33 C33     4.5189    -2.2568    -0.5512 C
34 C34     5.1381    -2.9708     0.4753 C
35 C35     6.5131    -3.1761     0.5212 C
36 C36     6.7453    -1.8995    -1.4831 C
37 C37     5.3683    -1.7387    -1.5337 C
38 F38     4.3955    -3.5117     1.4576 F
39 F39     7.0172    -3.9140     1.5316 F
40 F40     7.5089    -1.3559    -2.4437 F
41 F41     4.8542    -1.0318    -2.5556 F
42 C42    -0.1777     3.0241     0.2961 C
43 C43     0.4719     3.6279     1.3766 C
44 C44     0.5597     5.0079     1.5107 C
45 C45     0.0153     5.8666     0.5467 C
46 C46    -0.6661     5.2720    -0.5194 C
47 C47    -0.7394     3.8916    -0.6452 C
48 H48     0.9940    -6.2915    -0.6822 H
49 H49     3.3561    -5.0663    -0.3999 H
50 H50     0.5201    -2.2311    -1.5432 H
51 H51     4.2919     0.5934    -0.5140 H
52 H52     2.5257     2.5491    -0.1484 H
53 H53     0.4655    -1.0886     0.0710 H
54 H54    -2.8661     2.6742     0.5754 H
55 H55    -4.8170     0.8690     0.3238 H
56 H56    -4.4772    -4.7330    -0.7697 H
57 H57    -2.2349    -6.1464    -1.1941 H
58 H58    -1.2763    -2.0459    -0.5856 H
59 C59     7.3583    -2.6251    -0.4504 C
60 C60    -8.1155    -2.0046     0.0937 C
61 F61    -1.3348     3.3964    -1.7421 F
62 F62    -1.1819     6.0437    -1.4923 F
63 F63     1.0317     2.8675     2.3332 F
64 F64     1.1911     5.5257     2.5824 F
65 O65     8.6978    -2.7648    -0.5052 O
66 O66     0.0770     7.2144     0.6363 O
67 O67    -9.4426    -2.0520     0.3194 O
68 C68     9.4533    -2.8042     0.7324 C
69 H69     8.9785    -2.1371     1.4586 H
70 H70     9.4372    -3.8228     1.1323 H
71 C71    10.8684    -2.3635     0.4026 C
72 H72    11.2321    -2.9731    -0.4333 H
73 H73    10.8427    -1.3262     0.0483 H
74 C74    11.8281    -2.5090     1.5929 C
75 H75    12.8249    -2.1862     1.2694 H
76 H76    11.9229    -3.5732     1.8478 H
77 C77    11.4219    -1.7370     2.8597 C
78 H78    10.5047    -2.1738     3.2776 H
79 H79    12.2001    -1.8917     3.6197 H
80 C80    11.2111    -0.2279     2.6671 C
81 H81    10.3792    -0.0520     1.9715 H
82 H82    10.8954     0.2019     3.6268 H
83 C83    12.4536     0.5145     2.1695 C
84 H84    13.3072     0.3473     2.8387 H
85 H85    12.7521     0.1884     1.1666 H
86 H86    12.2750     1.5950     2.1225 H
87 C87     1.4010     7.8163     0.7093 C
88 H88     1.3182     8.6082     1.4586 H
89 H89     2.1205     7.0809     1.0742 H
90 C90     1.8160     8.3908    -0.6386 C
91 H91     1.1099     9.1846    -0.9115 H
92 H92     2.7920     8.8752    -0.4881 H
93 C93     1.9032     7.3764    -1.7882 C
94 H94     0.9023     6.9834    -1.9855 H
95 H95     2.1970     7.9190    -2.6971 H
96 C96     2.8942     6.2275    -1.5656 C
97 H97     3.8847     6.6508    -1.3461 H
98 H98     2.6079     5.6449    -0.6787 H
99 C99     3.0073     5.2775    -2.7688 C
100 H100     3.2157     5.8707    -3.6701 H
101 H101     3.8774     4.6227    -2.6272 H
102 C102     1.7695     4.4060    -3.0050 C
103 H103     0.8571     5.0007    -3.1217 H
104 H104     1.8847     3.8008    -3.9117 H
105 H105     1.6103     3.7127    -2.1714 H
106 C106   -10.3663    -1.7932    -0.7696 C
107 H107    -9.9268    -1.0565    -1.4512 H
108 H108   -10.5215    -2.7262    -1.3185 H
109 C109   -11.6689    -1.2835    -0.1747 C
110 H110   -12.4438    -1.4277    -0.9392 H
111 H111   -11.9438    -1.9310     0.6665 H
112 C112   -11.6691     0.1959     0.2414 C
113 H113   -12.6909     0.4576     0.5489 H
114 H114   -11.4560     0.8039    -0.6493 H
115 C115   -10.7035     0.6043     1.3642 C
116 H116    -9.6644     0.4505     1.0485 H
117 H117   -10.8162     1.6863     1.5235 H
118 C118   -10.9309    -0.1205     2.6946 C
119 H119   -12.0016    -0.0929     2.9454 H
120 H120   -10.6594    -1.1759     2.5830 H
121 C121   -10.1249     0.4916     3.8421 C
122 H122   -10.2786    -0.0585     4.7782 H
123 H123    -9.0520     0.4759     3.6214 H
124 H124   -10.4146     1.5355     4.0183 H
@<TRIPOS>BOND
1 1 7 Ar
2 1 9 Ar
3 1 33 1
4 2 12 Ar
5 2 14 Ar
6 2 42 1
7 3 17 Ar
8 3 19 Ar
9 3 24 1
10 4 5 Ar
11 4 8 1
12 4 22 Ar
13 5 6 Ar
14 5 48 1
15 6 7 Ar
16 6 49 1
17 7 8 1
18 8 50 1
19 9 10 Ar
20 9 13 1
21 10 11 2
22 10 51 1
23 11 12 Ar
24 11 52 1
25 12 13 Ar
26 13 53 1
27 14 15 1
28 14 18 Ar
29 15 16 2
30 15 54 1
31 16 17 1
32 16 55 1
33 17 18 1
34 19 20 Ar
35 19 23 Ar
36 20 21 Ar
37 20 56 1
38 21 22 Ar
39 21 57 1
40 22 23 Ar
41 23 58 1
42 24 25 Ar
43 24 28 Ar
44 25 26 Ar
45 25 29 1
46 26 30 1
47 26 60 Ar
48 27 28 Ar
49 27 31 1
50 27 60 Ar
51 28 32 1
52 33 34 Ar
53 33 37 Ar
54 34 35 Ar
55 34 38 1
56 35 39 1
57 35 59 Ar
58 36 37 Ar
59 36 40 1
60 36 59 Ar
61 37 41 1
62 42 43 Ar
63 42 47 Ar
64 43 44 Ar
65 43 63 1
66 44 45 Ar
67 44 64 1
68 45 46 Ar
69 45 66 1
70 46 47 Ar
71 46 62 1
72 47 61 1
73 59 65 1
74 60 67 1
75 65 68 1
76 66 87 1
77 67 106 1
78 68 69 1
79 68 70 1
80 68 71 1
81 71 72 1
82 71 73 1
83 71 74 1
84 74 75 1
85 74 76 1
86 74 77 1
87 77 78 1
88 77 79 1
89 77 80 1
90 80 81 1
91 80 82 1
92 80 83 1
93 83 84 1
94 83 85 1
95 83 86 1
96 87 88 1
97 87 89 1
98 87 90 1
99 90 91 1
100 90 92 1
101 90 93 1
102 93 94 1
103 93 95 1
104 93 96 1
105 96 97 1
106 96 98 1
107 96 99 1
108 99 100 1
109 99 101 1
110 99 102 1
111 102 103 1
112 102 104 1
113 102 105 1
114 106 107 1
115 106 108 1
116 106 109 1
117 109 110 1
118 109 111 1
119 109 112 1
120 112 113 1
121 112 114 1
122 112 115 1
123 115 116 1
124 115 117 1
125 115 118 1
126 118 119 1
127 118 120 1
128 118 121 1
129 121 122 1
130 121 123 1
131 121 124 1
