# 158_H_C_OH
# Created by GaussView 6.0.16
#

#
#

@<TRIPOS>MOLECULE
Molecule Name
70 77
SMALL
NO_CHARGES


@<TRIPOS>ATOM
1 C1     3.4300    -1.3722    -0.0997 C
2 C2    -0.0046     2.1575    -0.0306 C
3 C3    -3.4165    -1.3600    -0.0597 C
4 C4     0.6924    -3.7247    -0.2462 C
5 C5     1.7033    -4.6143     0.1714 C
6 C6     2.9061    -3.9042     0.2411 C
7 C7     2.6537    -2.5573    -0.1222 C
8 N8     1.3089    -2.5003    -0.4332 N
9 C9     2.8553    -0.0921    -0.1200 C
10 C10     3.5027     1.1809    -0.2447 C
11 C11     2.5470     2.1673    -0.2309 C
12 C12     1.2588     1.5539    -0.0893 C
13 N13     1.4917     0.1935    -0.0473 N
14 C14    -1.2553     1.4848     0.0063 C
15 C15    -2.5470     2.1557     0.0681 C
16 C16    -3.4990     1.1835     0.0566 C
17 C17    -2.8022    -0.0889    -0.0057 C
18 N18    -1.4366     0.1349    -0.0299 N
19 C19    -2.6706    -2.5542    -0.1946 C
20 C20    -2.9803    -3.9457    -0.1362 C
21 C21    -1.7823    -4.6536    -0.1791 C
22 C22    -0.7238    -3.7094    -0.2722 C
23 N23    -1.3131    -2.4765    -0.3139 N
24 C24    -4.8906    -1.4739     0.0454 C
25 C25    -5.6513    -2.0844    -0.9586 C
26 C26    -7.0279    -2.2107    -0.8552 C
27 C27    -6.9817    -1.1180     1.2675 C
28 C28    -5.6008    -1.0070     1.1590 C
29 F29    -5.0563    -2.5598    -2.0646 F
30 F30    -7.7459    -2.7967    -1.8413 F
31 F31    -7.6083    -0.6514     2.3589 F
32 F32    -4.9449    -0.4336     2.1801 F
33 C33     4.9104    -1.4899    -0.0348 C
34 C34     5.5628    -2.0228     1.0820 C
35 C35     6.9439    -2.1630     1.1484 C
36 C36     7.1096    -1.2076    -1.0341 C
37 C37     5.7293    -1.0900    -1.0951 C
38 F38     4.8441    -2.4304     2.1419 F
39 F39     7.5138    -2.6847     2.2454 F
40 F40     7.8851    -0.8105    -2.0692 F
41 F41     5.1876    -0.5682    -2.2081 F
42 C42    -0.0164     3.6473    -0.0230 C
43 C43     0.5126     4.3818     1.0426 C
44 C44     0.5067     5.7686     1.0458 C
45 C45    -0.0373     6.4974    -0.0128 C
46 C46    -0.5709     5.7807    -1.0857 C
47 C47    -0.5482     4.3912    -1.0822 C
48 H48     1.5474    -5.6428     0.4671 H
49 H49     3.8508    -4.2879     0.5973 H
50 H50     0.9484    -1.8087    -1.0785 H
51 H51     4.5680     1.3182    -0.3587 H
52 H52     2.7139     3.2294    -0.3381 H
53 H53     0.7862    -0.4284     0.3235 H
54 H54    -2.7043     3.2238     0.1203 H
55 H55    -4.5716     1.3181     0.0716 H
56 H56    -3.9735    -4.3640    -0.0524 H
57 H57    -1.6621    -5.7280    -0.1543 H
58 H58    -0.8882    -1.5458    -0.2234 H
59 C59     7.7463    -1.7496     0.0833 C
60 C60    -7.7235    -1.7288     0.2547 C
61 F61    -1.0649     3.7588    -2.1477 F
62 F62    -1.0940     6.4416    -2.1305 F
63 F63     1.0465     3.7499     2.1002 F
64 F64     1.0207     6.4620     2.0885 F
65 O65     9.0889    -1.8809     0.1620 O
66 O66    -0.0586     7.8491    -0.0291 O
67 O67    -9.0655    -1.8365     0.3735 O
68 H68    -9.4055    -2.2776    -0.4254 H
69 H69     9.4754    -1.5515    -0.6689 H
70 H70     0.3447     8.1678     0.7980 H
@<TRIPOS>BOND
1 1 7 Ar
2 1 9 Ar
3 1 33 1
4 2 12 Ar
5 2 14 Ar
6 2 42 1
7 3 17 Ar
8 3 19 Ar
9 3 24 1
10 4 5 Ar
11 4 8 1
12 4 22 Ar
13 5 6 Ar
14 5 48 1
15 6 7 Ar
16 6 49 1
17 7 8 Ar
18 8 50 1
19 9 10 Ar
20 9 13 1
21 10 11 2
22 10 51 1
23 11 12 Ar
24 11 52 1
25 12 13 Ar
26 13 53 1
27 14 15 1
28 14 18 Ar
29 15 16 2
30 15 54 1
31 16 17 1
32 16 55 1
33 17 18 1
34 19 20 Ar
35 19 23 Ar
36 20 21 Ar
37 20 56 1
38 21 22 Ar
39 21 57 1
40 22 23 Ar
41 23 58 1
42 24 25 Ar
43 24 28 Ar
44 25 26 Ar
45 25 29 1
46 26 30 1
47 26 60 Ar
48 27 28 Ar
49 27 31 1
50 27 60 Ar
51 28 32 1
52 33 34 Ar
53 33 37 Ar
54 34 35 Ar
55 34 38 1
56 35 39 1
57 35 59 Ar
58 36 37 Ar
59 36 40 1
60 36 59 Ar
61 37 41 1
62 42 43 Ar
63 42 47 Ar
64 43 44 Ar
65 43 63 1
66 44 45 Ar
67 44 64 1
68 45 46 Ar
69 45 66 1
70 46 47 Ar
71 46 62 1
72 47 61 1
73 59 65 1
74 60 67 1
75 65 69 1
76 66 70 1
77 67 68 1
