# Al_F15_Br4_Ar2_OPT
# Created by GaussView 6.0.16
#

#
#

@<TRIPOS>MOLECULE
Molecule Name
85 96
SMALL
NO_CHARGES


@<TRIPOS>ATOM
1 C1     3.3468    -0.0025     0.1327 C
2 C2    -0.0308     3.5367    -0.0026 C
3 C3    -3.3489    -0.0623     0.0383 C
4 C4     0.7439    -2.4272    -0.0071 C
5 C5     1.8470    -3.3294    -0.1639 C
6 C6     3.0080    -2.5700    -0.0968 C
7 C7     2.6208    -1.1975     0.0848 C
8 N8     1.2454    -1.1759     0.1438 N
9 C9     2.7499     1.2790     0.1060 C
10 C10     3.4533     2.5315     0.0372 C
11 C11     2.5179     3.5295    -0.0028 C
12 C12     1.2267     2.9038     0.0479 C
13 N13     1.3905     1.5318     0.1195 N
14 C14    -1.2759     2.8786    -0.0069 C
15 C15    -2.5717     3.4800    -0.1487 C
16 C16    -3.4922     2.4673    -0.1263 C
17 C17    -2.7722     1.2303     0.0140 C
18 N18    -1.4210     1.5068     0.0871 N
19 C19    -2.6012    -1.2435     0.0213 C
20 C20    -2.9601    -2.6248    -0.1603 C
21 C21    -1.7849    -3.3630    -0.1992 C
22 C22    -0.7012    -2.4395    -0.0238 C
23 N23    -1.2281    -1.1975     0.1110 N
24 C24    -7.0133     0.0133    -0.9757 C
25 C25    -5.6270     0.1059    -1.0327 C
26 C26    -4.8331    -0.1341     0.0878 C
27 C27    -5.4751    -0.4601     1.2832 C
28 C28    -6.8591    -0.5553     1.3652 C
29 C29     0.4205     7.0833    -1.3039 C
30 C30     0.4386     5.6961    -1.2132 C
31 C31    -0.0516     5.0225    -0.0913 C
32 C32    -0.5765     5.7998     0.9452 C
33 C33    -0.6072     7.1889     0.8750 C
34 C34     6.8386    -0.4498     1.5260 C
35 C35     5.4550    -0.3757     1.4189 C
36 C36     4.8307    -0.0494     0.2145 C
37 C37     5.6413     0.2137    -0.8890 C
38 C38     7.0276     0.1417    -0.8068 C
39 H39     4.5272     2.6439     0.0144 H
40 H40     2.7019     4.5920    -0.0633 H
41 H41    -2.7641     4.5357    -0.2727 H
42 H42    -4.5649     2.5593    -0.2127 H
43 C43    -0.1034     7.8314    -0.2528 C
44 C44    -7.6285    -0.3207     0.2281 C
45 C45     7.6251    -0.1935     0.4055 C
46 Al46    -0.0101     0.2607     0.6169 Al
47 C47     0.0754     0.4781    -2.1723 C
48 C48     0.0677    -0.7307    -2.8102 C
49 C49     0.1053     1.6817    -2.8167 C
50 C50     0.0891    -0.6687    -4.2216 C
51 H51     0.0457    -1.7008    -2.3228 H
52 C52     0.1276     1.6159    -4.2261 C
53 H53     0.1222     2.6521    -2.3312 H
54 N54     0.1192     0.4713    -4.9047 N
55 H55     0.0811    -1.5967    -4.7911 H
56 H56     0.1569     2.5408    -4.7998 H
57 F57     0.8925     7.6993    -2.3918 F
58 F58    -5.0534     0.4218    -2.2015 F
59 F59    -7.7553     0.2393    -2.0647 F
60 F60    -8.9579    -0.4108     0.2943 F
61 F61    -7.4537    -0.8716     2.5192 F
62 F62    -4.7493    -0.7021     2.3834 F
63 F63    -1.0646     5.2096     2.0420 F
64 F64    -1.1095     7.9073     1.8831 F
65 F65    -0.1255     9.1624    -0.3290 F
66 F66     0.9328     5.0016    -2.2511 F
67 F67     5.0841     0.5303    -2.0651 F
68 F68     4.7127    -0.6383     2.5033 F
69 F69     7.4168    -0.7668     2.6883 F
70 F70     7.7864     0.3883    -1.8796 F
71 F71     8.9543    -0.2645     0.4954 F
72 C72    -0.0318     0.2706     2.6117 C
73 C73     1.1461     0.2709     3.3799 C
74 C74    -1.2275     0.2612     3.3514 C
75 C75     1.0827     0.2682     4.7735 C
76 H76     2.1261     0.2642     2.9060 H
77 C77    -1.1977     0.2586     4.7462 C
78 H78    -2.1954     0.2462     2.8536 H
79 N79    -0.0659     0.2652     5.4641 N
80 H80     1.9970     0.2674     5.3671 H
81 H81    -2.1260     0.2503     5.3175 H
82 Br82    -1.7207    -5.2150    -0.4472 Br
83 Br83    -4.6707    -3.3547    -0.3993 Br
84 Br84     1.8227    -5.1809    -0.4246 Br
85 Br85     4.7360    -3.2682    -0.3039 Br
@<TRIPOS>BOND
1 1 7 Ar
2 1 9 Ar
3 1 36 1
4 2 12 Ar
5 2 14 Ar
6 2 31 1
7 3 17 Ar
8 3 19 Ar
9 3 26 1
10 4 5 Ar
11 4 8 Ar
12 4 22 Ar
13 5 6 Ar
14 5 84 1
15 6 7 Ar
16 6 85 1
17 7 8 Ar
18 8 46 1
19 9 10 Ar
20 9 13 1
21 10 11 2
22 10 39 1
23 11 12 Ar
24 11 40 1
25 12 13 1
26 13 46 1
27 14 15 Ar
28 14 18 1
29 15 16 2
30 15 41 1
31 16 17 Ar
32 16 42 1
33 17 18 Ar
34 18 46 1
35 19 20 Ar
36 19 23 Ar
37 20 21 Ar
38 20 83 1
39 21 22 Ar
40 21 82 1
41 22 23 Ar
42 23 46 1
43 24 25 Ar
44 24 44 Ar
45 24 59 1
46 25 26 Ar
47 25 58 1
48 26 27 Ar
49 27 28 Ar
50 27 62 1
51 28 44 Ar
52 28 61 1
53 29 30 Ar
54 29 43 Ar
55 29 57 1
56 30 31 Ar
57 30 66 1
58 31 32 Ar
59 32 33 Ar
60 32 63 1
61 33 43 Ar
62 33 64 1
63 34 35 Ar
64 34 45 Ar
65 34 69 1
66 35 36 Ar
67 35 68 1
68 36 37 Ar
69 37 38 Ar
70 37 67 1
71 38 45 Ar
72 38 70 1
73 43 65 1
74 44 60 1
75 45 71 1
76 46 72 1
77 47 48 2
78 47 49 2
79 48 50 Ar
80 48 51 1
81 49 52 Ar
82 49 53 1
83 50 54 Ar
84 50 55 1
85 52 54 Ar
86 52 56 1
87 72 73 Ar
88 72 74 Ar
89 73 75 Ar
90 73 76 1
91 74 77 Ar
92 74 78 1
93 75 79 Ar
94 75 80 1
95 77 79 Ar
96 77 81 1
