# Al_F15_SO2Cl_OPT
# Created by GaussView 6.0.16
#

#
#

@<TRIPOS>MOLECULE
Molecule Name
91 100
SMALL
NO_CHARGES


@<TRIPOS>ATOM
1 C1     3.0041    -0.2927     0.1637 C
2 C2    -0.5511     3.0928    -0.3498 C
3 C3    -3.7375    -0.5948     0.2367 C
4 C4     0.4393    -2.7879     0.2365 C
5 C5     1.4881    -3.6781    -0.0518 C
6 C6     2.6409    -2.8853    -0.1215 C
7 C7     2.2734    -1.5175     0.1070 C
8 N8     0.9307    -1.5059     0.3104 N
9 C9     2.3756     0.9338     0.0641 C
10 C10     2.8772     2.2102     0.4082 C
11 C11     1.9026     3.1652     0.2233 C
12 C12     0.7124     2.5458    -0.2210 C
13 N13     0.9942     1.1201    -0.4360 N
14 C14    -1.7625     2.3454    -0.3381 C
15 C15    -3.0783     2.8764    -0.5422 C
16 C16    -3.9651     1.8595    -0.3154 C
17 C17    -3.2070     0.6824     0.0072 C
18 N18    -1.8469     1.0165    -0.0097 N
19 C19    -2.9236    -1.7350     0.4116 C
20 C20    -3.2500    -3.1110     0.2963 C
21 C21    -2.0319    -3.7944     0.2722 C
22 C22    -0.9811    -2.8382     0.3657 C
23 N23    -1.5569    -1.6149     0.4977 N
24 C24    -7.3416    -0.8087    -0.9683 C
25 C25    -5.9690    -0.5871    -0.9449 C
26 C26    -5.2074    -0.8012     0.2084 C
27 C27    -5.8796    -1.2716     1.3418 C
28 C28    -7.2510    -1.5028     1.3387 C
29 C29    -0.0725     6.6973    -1.4412 C
30 C30    -0.0104     5.3089    -1.3945 C
31 C31    -0.6372     4.5738    -0.3814 C
32 C32    -1.3227     5.2972     0.6011 C
33 C33    -1.4040     6.6848     0.5695 C
34 C34     6.2877    -0.8071     1.9793 C
35 C35     4.9359    -0.8222     1.6647 C
36 C36     4.4518    -0.2868     0.4681 C
37 C37     5.3829     0.2730    -0.4117 C
38 C38     6.7416     0.2899    -0.1220 C
39 C39    -0.7748     7.3865    -0.4560 C
40 C40    -7.9837    -1.2688     0.1783 C
41 C41     7.1930    -0.2526     1.0786 C
42 C42     0.9359     0.7956    -1.8906 C
43 C43    -0.0299    -0.0577    -2.4106 C
44 C44     1.8822     1.3524    -2.7505 C
45 C45    -0.0024    -0.3189    -3.7839 C
46 H46    -0.7996    -0.5179    -1.8070 H
47 C47     1.8162     1.0224    -4.1020 C
48 H48     2.6589     2.0131    -2.3867 H
49 N49     0.8946     0.2021    -4.6236 N
50 H50    -0.7444    -0.9862    -4.2158 H
51 H51     2.5431     1.4381    -4.7954 H
52 F52     0.5310     7.3707    -2.4250 F
53 F53    -5.3795    -0.1658    -2.0724 F
54 F54    -8.0429    -0.5949    -2.0856 F
55 F55    -9.2991    -1.4850     0.1647 F
56 F56    -7.8672    -1.9406     2.4400 F
57 F57    -5.2017    -1.4997     2.4735 F
58 F58    -1.9197     4.6560     1.6168 F
59 F59    -2.0668     7.3476     1.5216 F
60 F60    -0.8416     8.7173    -0.4916 F
61 F61     0.6715     4.6746    -2.3587 F
62 F62     4.9748     0.8042    -1.5739 F
63 F63     4.0868    -1.3789     2.5386 F
64 F64     6.7234    -1.3242     3.1312 F
65 F65     7.6133     0.8262    -0.9822 F
66 F66     8.4941    -0.2350     1.3676 F
67 C67     0.0819     0.6238     2.5171 C
68 C68     1.1052     0.0440     3.2875 C
69 C69    -0.5086     1.7775     3.0614 C
70 C70     1.4827     0.6190     4.5013 C
71 H71     1.6265    -0.8458     2.9473 H
72 C72    -0.0646     2.2824     4.2842 C
73 H73    -1.3019     2.3039     2.5380 H
74 N74     0.9185     1.7256     5.0040 N
75 H75     2.2808     0.1745     5.0948 H
76 H76    -0.5158     3.1808     4.7045 H
77 S77     4.1606    -3.5717    -0.6637 S
78 S78    -1.8592    -5.5082     0.0246 S
79 O79     5.2798    -3.2306     0.2075 O
80 O80     3.9249    -4.9502    -1.0721 O
81 O81    -0.5893    -5.9653     0.5789 O
82 O82    -3.1213    -6.1749     0.3157 O
83 Cl83     4.4840    -2.4458    -2.4585 Cl
84 Cl84    -1.6171    -5.6098    -2.1024 Cl
85 Al85    -0.3801    -0.0729     0.7311 Al
86 H86    -3.3069     3.8921    -0.8304 H
87 H87    -5.0423     1.9126    -0.3721 H
88 H88     1.9814     4.2121     0.4804 H
89 H89     3.8569     2.3771     0.8330 H
90 H90     1.4229    -4.7444    -0.2010 H
91 H91    -4.2347    -3.5438     0.1952 H
@<TRIPOS>BOND
1 1 7 Ar
2 1 9 2
3 1 36 1
4 2 12 2
5 2 14 Ar
6 2 31 1
7 3 17 Ar
8 3 19 Ar
9 3 26 1
10 4 5 Ar
11 4 8 Ar
12 4 22 Ar
13 5 6 Ar
14 5 90 1
15 6 7 Ar
16 6 77 1
17 7 8 Ar
18 8 85 1
19 9 10 Ar
20 9 13 1
21 10 11 2
22 10 89 1
23 11 12 Ar
24 11 88 1
25 12 13 1
26 13 42 1
27 14 15 Ar
28 14 18 Ar
29 15 16 2
30 15 86 1
31 16 17 Ar
32 16 87 1
33 17 18 1
34 18 85 1
35 19 20 Ar
36 19 23 Ar
37 20 21 Ar
38 20 91 1
39 21 22 Ar
40 21 78 1
41 22 23 Ar
42 23 85 1
43 24 25 Ar
44 24 40 Ar
45 24 54 1
46 25 26 Ar
47 25 53 1
48 26 27 Ar
49 27 28 Ar
50 27 57 1
51 28 40 Ar
52 28 56 1
53 29 30 Ar
54 29 39 Ar
55 29 52 1
56 30 31 Ar
57 30 61 1
58 31 32 Ar
59 32 33 Ar
60 32 58 1
61 33 39 Ar
62 33 59 1
63 34 35 Ar
64 34 41 Ar
65 34 64 1
66 35 36 Ar
67 35 63 1
68 36 37 Ar
69 37 38 Ar
70 37 62 1
71 38 41 Ar
72 38 65 1
73 39 60 1
74 40 55 1
75 41 66 1
76 42 43 Ar
77 42 44 Ar
78 43 45 Ar
79 43 46 1
80 44 47 Ar
81 44 48 1
82 45 49 Ar
83 45 50 1
84 47 49 Ar
85 47 51 1
86 67 68 Ar
87 67 69 Ar
88 67 85 1
89 68 70 Ar
90 68 71 1
91 69 72 Ar
92 69 73 1
93 70 74 Ar
94 70 75 1
95 72 74 Ar
96 72 76 1
97 77 79 2
98 77 80 2
99 78 81 2
100 78 82 2
