# Ar3_Si_C5_OPT
# Created by GaussView 6.0.16
#

#
#

@<TRIPOS>MOLECULE
Molecule Name
127 134
SMALL
NO_CHARGES


@<TRIPOS>ATOM
1 C1     3.8515     3.8484     0.0379 C
2 C2     1.6957    -0.4191    -1.0932 C
3 C3     5.7095    -2.7079     0.6492 C
4 C4     6.5603     1.9310     1.3870 C
5 C5     7.1236     3.2182     1.5954 C
6 C6     6.1885     4.1654     1.1772 C
7 C7     5.0407     3.4681     0.6991 C
8 C8     2.9437     2.8971    -0.4708 C
9 C9     1.7105     3.2184    -1.1630 C
10 C10     1.1158     2.0345    -1.4848 C
11 C11     1.9798     0.9734    -0.9806 C
12 N12     3.0807     1.5186    -0.3886 N
13 C13     2.5434    -1.4541    -0.6659 C
14 C14     2.2863    -2.8657    -0.5965 C
15 C15     3.4092    -3.4944    -0.1134 C
16 C16     4.4154    -2.5090     0.1484 C
17 C17     6.5240    -1.6259     1.0620 C
18 C18     7.9204    -1.4787     1.2484 C
19 C19     8.1934    -0.1288     1.5050 C
20 C20     6.9724     0.5760     1.4872 C
21 H21     0.1902     1.8904    -2.0233 H
22 H22     9.1712     0.3219     1.6089 H
23 H23     8.6446    -2.2727     1.1298 H
24 H24     1.3452    -3.3280    -0.8549 H
25 H25     3.5330    -4.5491     0.0882 H
26 H26     1.3544     4.2182    -1.3726 H
27 C27     3.5752     5.3074    -0.1344 C
28 C28     3.9571     5.9648    -1.3198 C
29 C29     2.9472     6.0270     0.9021 C
30 C30     3.6987     7.3329    -1.4509 C
31 C31     2.7060     7.3928     0.7311 C
32 C32     3.0705     8.0639    -0.4396 C
33 H33     3.9974     7.8389    -2.3665 H
34 H34     2.2207     7.9459     1.5327 H
35 C35     6.2656    -4.0904     0.7132 C
36 C36     6.4820    -4.7069     1.9654 C
37 C37     6.5924    -4.7787    -0.4746 C
38 C38     7.0156    -5.9971     2.0061 C
39 C39     7.1255    -6.0687    -0.3874 C
40 C40     7.3468    -6.6953     0.8408 C
41 H41     7.1699    -6.4723     2.9728 H
42 H42     7.3805    -6.5946    -1.3049 H
43 C43     0.3987    -0.8341    -1.6993 C
44 C44     0.3708    -1.6786    -2.8185 C
45 C45    -0.8300    -0.4087    -1.1641 C
46 C46    -0.8391    -2.0842    -3.3808 C
47 C47    -2.0356    -0.8071    -1.7328 C
48 C48    -2.0571    -1.6490    -2.8529 C
49 H49    -0.8349    -2.7386    -4.2495 H
50 H50    -2.9754    -0.4749    -1.3003 H
51 H51     8.1035     3.4126     2.0100 H
52 C52     2.7701     9.5321    -0.6143 C
53 H53     1.7485     9.6876    -0.9868 H
54 H54     2.8531    10.0744     0.3342 H
55 H55     3.4525     9.9984    -1.3328 H
56 C56     2.5393     5.3387     2.1818 C
57 H57     1.8915     4.4773     1.9834 H
58 H58     3.4105     4.9587     2.7284 H
59 H59     2.0004     6.0257     2.8416 H
60 C60     4.6360     5.2113    -2.4373 C
61 H61     5.5235     4.6770    -2.0796 H
62 H62     3.9700     4.4590    -2.8760 H
63 H63     4.9470     5.8925    -3.2355 H
64 C64     6.3929    -4.1492    -1.8328 C
65 H65     5.3364    -4.1402    -2.1261 H
66 H66     6.7358    -3.1094    -1.8480 H
67 H67     6.9450    -4.7020    -2.5993 H
68 C68     6.1315    -4.0025     3.2540 C
69 H69     6.8527    -3.2113     3.4912 H
70 H70     5.1465    -3.5272     3.1972 H
71 H71     6.1225    -4.7071     4.0913 H
72 C72     7.9533    -8.0746     0.9125 C
73 H73     9.0294    -8.0248     1.1266 H
74 H74     7.4956    -8.6738     1.7077 H
75 H75     7.8329    -8.6151    -0.0320 H
76 H76     6.3064     5.2401     1.1875 H
77 H77    -0.8317     0.2342    -0.2891 H
78 H78     1.3077    -2.0136    -3.2529 H
79 C79    -3.3663    -2.0599    -3.4877 C
80 H80    -3.8665    -1.2001    -3.9423 H
81 H81    -3.1752    -2.7809    -4.2955 H
82 N82    -4.3013    -2.5949    -2.5100 N
83 C83    -5.6613    -2.4071    -2.6660 C
84 O84    -6.1368    -1.6290    -3.4919 O
85 N85    -6.4359    -3.1733    -1.8186 N
86 H86    -5.9780    -3.5535    -0.9988 H
87 C87    -7.8607    -2.9006    -1.6840 C
88 H88    -8.3645    -3.8393    -1.4225 H
89 H89    -8.2190    -2.5934    -2.6690 H
90 C90    -8.1917    -1.8204    -0.6485 C
91 H91    -7.6642    -0.8989    -0.9183 H
92 H92    -7.8090    -2.1326     0.3333 H
93 C93    -9.7025    -1.5511    -0.5609 C
94 H94   -10.0766    -1.1968    -1.5310 H
95 H95   -10.2436    -2.4841    -0.3473 H
96 Si96   -10.1676    -0.3092     0.7394 Si
97 O97   -11.7658     0.0840     0.5614 O
98 O98    -9.9102    -0.9677     2.2424 O
99 O99    -9.2172     1.0348     0.5538 O
100 C100   -12.6424     0.4241     1.6388 C
101 C101    -9.3351    -0.2763     3.3519 C
102 C102    -9.6020     2.3659     0.9009 C
103 H103   -13.3739     1.1354     1.2380 H
104 H104   -12.0955     0.9413     2.4394 H
105 C105   -13.3421    -0.8069     2.1916 C
106 H106    -8.4505     0.2852     3.0257 H
107 H107   -10.0589     0.4486     3.7522 H
108 C108    -8.9624    -1.2832     4.4240 C
109 H109   -10.6108     2.5733     0.5207 H
110 H110    -9.6312     2.4716     1.9953 H
111 C111    -8.6001     3.3402     0.3099 C
112 H112   -14.0575    -0.5228     2.9731 H
113 H113   -13.8876    -1.3249     1.3953 H
114 H114   -12.6128    -1.5006     2.6217 H
115 H115    -8.2296    -2.0012     4.0394 H
116 H116    -8.5274    -0.7748     5.2924 H
117 H117    -9.8466    -1.8391     4.7546 H
118 H118    -8.5786     3.2540    -0.7817 H
119 H119    -8.8675     4.3706     0.5726 H
120 H120    -7.5935     3.1353     0.6902 H
121 N121     5.9898    -0.3655     1.2427 N
122 H122     5.0228    -0.2303     1.5065 H
123 N123     5.3053     2.1397     0.8870 N
124 H124     4.6427     1.4694     0.4800 H
125 N125     3.8256    -1.2853    -0.1764 N
126 H126     4.3223    -0.4227    -0.3515 H
127 H127    -3.9937    -3.4144    -2.0013 H
@<TRIPOS>BOND
1 1 7 Ar
2 1 8 Ar
3 1 27 1
4 2 11 Ar
5 2 13 Ar
6 2 43 1
7 3 16 Ar
8 3 17 Ar
9 3 35 1
10 4 5 Ar
11 4 20 Ar
12 4 123 Ar
13 5 6 Ar
14 5 51 1
15 6 7 Ar
16 6 76 1
17 7 123 Ar
18 8 9 1
19 8 12 1
20 9 10 2
21 9 26 1
22 10 11 1
23 10 21 1
24 11 12 Ar
25 13 14 Ar
26 13 125 1
27 14 15 2
28 14 24 1
29 15 16 Ar
30 15 25 1
31 16 125 1
32 17 18 Ar
33 17 121 Ar
34 18 19 Ar
35 18 23 1
36 19 20 Ar
37 19 22 1
38 20 121 1
39 27 28 Ar
40 27 29 Ar
41 28 30 Ar
42 28 60 1
43 29 31 Ar
44 29 56 1
45 30 32 Ar
46 30 33 1
47 31 32 Ar
48 31 34 1
49 32 52 1
50 35 36 Ar
51 35 37 Ar
52 36 38 Ar
53 36 68 1
54 37 39 Ar
55 37 64 1
56 38 40 Ar
57 38 41 1
58 39 40 Ar
59 39 42 1
60 40 72 1
61 43 44 Ar
62 43 45 Ar
63 44 46 Ar
64 44 78 1
65 45 47 Ar
66 45 77 1
67 46 48 Ar
68 46 49 1
69 47 48 Ar
70 47 50 1
71 48 79 1
72 52 53 1
73 52 54 1
74 52 55 1
75 56 57 1
76 56 58 1
77 56 59 1
78 60 61 1
79 60 62 1
80 60 63 1
81 64 65 1
82 64 66 1
83 64 67 1
84 68 69 1
85 68 70 1
86 68 71 1
87 72 73 1
88 72 74 1
89 72 75 1
90 79 80 1
91 79 81 1
92 79 82 1
93 82 83 Ar
94 82 127 1
95 83 84 2
96 83 85 Ar
97 85 86 1
98 85 87 1
99 87 88 1
100 87 89 1
101 87 90 1
102 90 91 1
103 90 92 1
104 90 93 1
105 93 94 1
106 93 95 1
107 93 96 1
108 96 97 Ar
109 96 98 Ar
110 96 99 Ar
111 97 100 1
112 98 101 1
113 99 102 1
114 100 103 1
115 100 104 1
116 100 105 1
117 101 106 1
118 101 107 1
119 101 108 1
120 102 109 1
121 102 110 1
122 102 111 1
123 105 112 1
124 105 113 1
125 105 114 1
126 108 115 1
127 108 116 1
128 108 117 1
129 111 118 1
130 111 119 1
131 111 120 1
132 121 122 1
133 123 124 1
134 125 126 1
