# Au_C15_OPT
# Created by GaussView 6.0.16
#

#
#

@<TRIPOS>MOLECULE
Molecule Name
65 75
SMALL
NO_CHARGES


@<TRIPOS>ATOM
1 C1    -3.3695    -0.8835     0.0084 C
2 C2     3.3744    -0.8691     0.0053 C
3 C3    -0.7079    -3.3509    -0.0711 C
4 C4    -1.8111    -4.2410     0.0585 C
5 C5    -2.9757    -3.4764     0.0941 C
6 C6    -2.6158    -2.0898    -0.0199 C
7 C7    -2.8103     0.4189    -0.0121 C
8 C8    -3.5054     1.6807    -0.0816 C
9 C9    -2.5798     2.6948    -0.1016 C
10 C10    -1.2649     2.1066    -0.0434 C
11 N11    -1.4595     0.7448     0.0035 N
12 C12     1.2587     2.1127    -0.0500 C
13 C13     2.5716     2.7080    -0.0233 C
14 C14     3.5013     1.6975    -0.0147 C
15 C15     2.8107     0.4313    -0.0168 C
16 N16     1.4592     0.7513    -0.0488 N
17 C17     2.6264    -2.0783    -0.0372 C
18 C18     2.9929    -3.4635     0.0747 C
19 C19     1.8317    -4.2332     0.0427 C
20 C20     0.7240    -3.3478    -0.0813 C
21 N21     1.2661    -2.0827    -0.1491 N
22 C22     6.9326    -0.5290     1.2913 C
23 C23     5.5488    -0.3979     1.1825 C
24 C24     4.8533    -0.9919     0.1163 C
25 C25     5.5816    -1.7281    -0.8325 C
26 C26     6.9653    -1.8611    -0.7213 C
27 C27    -0.6029     6.3766     0.9247 C
28 C28    -0.5953     4.9822     0.9545 C
29 C29    -0.0087     4.2459    -0.0866 C
30 C30     0.5728     4.9433    -1.1572 C
31 C31     0.5701     6.3377    -1.1847 C
32 H32    -1.7482    -5.3188     0.1281 H
33 H33    -3.9845    -3.8502     0.1955 H
34 H34    -4.5793     1.7861    -0.1309 H
35 H35    -2.7792     3.7546    -0.1631 H
36 H36     2.7671     3.7701    -0.0119 H
37 H37     4.5757     1.8093    -0.0108 H
38 H38     4.0038    -3.8330     0.1708 H
39 H39     1.7736    -5.3113     0.1134 H
40 H40     4.9941     0.1550     1.9343 H
41 H41     5.0564    -2.1849    -1.6656 H
42 H42     7.5127    -2.4285    -1.4689 H
43 H43    -1.0384     4.4527     1.7927 H
44 H44     1.0196     4.3834    -1.9734 H
45 H45     1.0216     6.8599    -2.0237 H
46 C46    -0.0047     2.7543    -0.0584 C
47 N47    -1.2557    -2.0881    -0.1337 N
48 Au48     0.0020    -0.5844    -0.0910 Au
49 C49    -4.8495    -1.0106     0.0800 C
50 C50    -5.5465    -1.7696    -0.8748 C
51 C51    -5.5793    -0.3938     1.1098 C
52 C52    -6.9326    -1.9033    -0.8043 C
53 H53    -4.9944    -2.2421    -1.6813 H
54 C54    -6.9656    -0.5259     1.1778 C
55 H55    -5.0485     0.1773     1.8653 H
56 C56    -7.6473    -1.2808     0.2211 C
57 H57    -7.5124    -0.0455     1.9845 H
58 H58    -8.7274    -1.3844     0.2749 H
59 C59    -0.0190     7.0591    -0.1444 C
60 H60    -0.0231     8.1453    -0.1668 H
61 C61     7.6460    -1.2608     0.3398 C
62 H62     8.7241    -1.3640     0.4256 H
63 H63     7.4521    -0.0664     2.1259 H
64 H64    -1.0587     6.9298     1.7413 H
65 H65    -7.4551    -2.4880    -1.5563 H
@<TRIPOS>BOND
1 1 6 Ar
2 1 7 Ar
3 1 49 1
4 2 15 Ar
5 2 17 Ar
6 2 24 1
7 3 4 Ar
8 3 20 Ar
9 3 47 Ar
10 4 5 Ar
11 4 32 1
12 5 6 Ar
13 5 33 1
14 6 47 Ar
15 7 8 Ar
16 7 11 1
17 8 9 2
18 8 34 1
19 9 10 Ar
20 9 35 1
21 10 11 Ar
22 10 46 Ar
23 11 48 1
24 12 13 Ar
25 12 16 Ar
26 12 46 Ar
27 13 14 2
28 13 36 1
29 14 15 Ar
30 14 37 1
31 15 16 1
32 16 48 1
33 17 18 Ar
34 17 21 Ar
35 18 19 Ar
36 18 38 1
37 19 20 Ar
38 19 39 1
39 20 21 Ar
40 21 48 1
41 22 23 Ar
42 22 61 Ar
43 22 63 1
44 23 24 Ar
45 23 40 1
46 24 25 Ar
47 25 26 Ar
48 25 41 1
49 26 42 1
50 26 61 Ar
51 27 28 Ar
52 27 59 Ar
53 27 64 1
54 28 29 Ar
55 28 43 1
56 29 30 Ar
57 29 46 1
58 30 31 Ar
59 30 44 1
60 31 45 1
61 31 59 Ar
62 47 48 1
63 49 50 Ar
64 49 51 Ar
65 50 52 Ar
66 50 53 1
67 51 54 Ar
68 51 55 1
69 52 56 Ar
70 52 65 1
71 54 56 Ar
72 54 57 1
73 56 58 1
74 59 60 1
75 61 62 1
