# Au_COOH3_OPT
# Created by GaussView 6.0.16
#

#
#

@<TRIPOS>MOLECULE
Molecule Name
74 84
SMALL
NO_CHARGES


@<TRIPOS>ATOM
1 C1    -3.3706    -1.1967    -0.0345 C
2 C2     3.3688    -1.1999    -0.0733 C
3 C3    -0.7172    -3.6685    -0.1582 C
4 C4    -1.8213    -4.5586    -0.0301 C
5 C5    -2.9833    -3.7933     0.0209 C
6 C6    -2.6212    -2.4050    -0.0823 C
7 C7    -2.8100     0.1065    -0.0396 C
8 C8    -3.5025     1.3703    -0.0908 C
9 C9    -2.5746     2.3823    -0.1012 C
10 C10    -1.2615     1.7896    -0.0562 C
11 N11    -1.4593     0.4278    -0.0266 N
12 C12     1.2647     1.7893    -0.0834 C
13 C13     2.5789     2.3807    -0.0533 C
14 C14     3.5055     1.3674    -0.0606 C
15 C15     2.8103     0.1041    -0.0756 C
16 N16     1.4607     0.4276    -0.1008 N
17 C17     2.6185    -2.4064    -0.1312 C
18 C18     2.9814    -3.7950    -0.0341 C
19 C19     1.8187    -4.5597    -0.0685 C
20 C20     0.7130    -3.6688    -0.1786 C
21 N21     1.2583    -2.4047    -0.2375 N
22 C22     6.9214    -0.8705     1.2188 C
23 C23     5.5425    -0.7332     1.1031 C
24 C24     4.8452    -1.3291     0.0379 C
25 C25     5.5708    -2.0755    -0.9075 C
26 C26     6.9484    -2.2163    -0.7938 C
27 C27    -0.6042     6.0280     0.9766 C
28 C28    -0.5974     4.6386     0.9787 C
29 C29     0.0003     3.9222    -0.0722 C
30 C30     0.5942     4.6397    -1.1237 C
31 C31     0.5931     6.0309    -1.1281 C
32 H32    -1.7598    -5.6371     0.0280 H
33 H33    -3.9911    -4.1686     0.1270 H
34 H34    -4.5760     1.4817    -0.1379 H
35 H35    -2.7738     3.4427    -0.1499 H
36 H36     2.7801     3.4415    -0.0272 H
37 H37     4.5800     1.4778    -0.0600 H
38 H38     3.9908    -4.1701     0.0549 H
39 H39     1.7571    -5.6381    -0.0084 H
40 H40     7.4453    -0.4115     2.0492 H
41 H41     4.9909    -0.1750     1.8525 H
42 H42     5.0463    -2.5321    -1.7404 H
43 H43     7.5109    -2.7849    -1.5263 H
44 H44    -1.0603     6.5830     1.7893 H
45 H45    -1.0476     4.0946     1.8031 H
46 H46     1.0474     4.0967    -1.9469 H
47 H47     1.0488     6.5718    -1.9496 H
48 C48    -0.0090     6.7350    -0.0765 C
49 C49    -0.0454     8.2171    -0.0323 C
50 O50    -0.5701     8.8738     0.8477 O
51 O51     0.5741     8.7959    -1.0880 O
52 H52     0.4878     9.7597    -0.9565 H
53 C53     7.6347    -1.6144     0.2690 C
54 C54     9.1048    -1.7942     0.3455 C
55 O55     9.7707    -2.4283    -0.4516 O
56 O56     9.6608    -1.1726     1.4124 O
57 H57    10.6188    -1.3559     1.3633 H
58 C58     0.0015     2.4323    -0.0719 C
59 N59    -1.2628    -2.4040    -0.2043 N
60 Au60    -0.0012    -0.9037    -0.1512 Au
61 C61    -4.8479    -1.3243     0.0441 C
62 C62    -5.5479    -2.1065    -0.8921 C
63 C63    -5.5762    -0.6982     1.0692 C
64 C64    -6.9256    -2.2573    -0.8049 C
65 H65    -5.0014    -2.5879    -1.6962 H
66 C66    -6.9584    -0.8370     1.1490 C
67 H67    -5.0473    -0.1228     1.8217 H
68 C68    -7.6494    -1.6153     0.2090 C
69 H69    -7.4636    -2.8648    -1.5242 H
70 H70    -7.4760    -0.3704     1.9838 H
71 C71    -9.1267    -1.8367     0.2523 C
72 O72    -9.8649    -0.9523     0.9684 O
73 H73    -9.3169    -0.1993     1.2478 H
74 O74    -9.6794    -2.7550    -0.3121 O
@<TRIPOS>BOND
1 1 6 Ar
2 1 7 Ar
3 1 61 1
4 2 15 Ar
5 2 17 Ar
6 2 24 1
7 3 4 Ar
8 3 20 Ar
9 3 59 Ar
10 4 5 Ar
11 4 32 1
12 5 6 Ar
13 5 33 1
14 6 59 Ar
15 7 8 Ar
16 7 11 1
17 8 9 2
18 8 34 1
19 9 10 Ar
20 9 35 1
21 10 11 Ar
22 10 58 Ar
23 11 60 1
24 12 13 Ar
25 12 16 Ar
26 12 58 Ar
27 13 14 2
28 13 36 1
29 14 15 Ar
30 14 37 1
31 15 16 1
32 16 60 1
33 17 18 Ar
34 17 21 Ar
35 18 19 Ar
36 18 38 1
37 19 20 Ar
38 19 39 1
39 20 21 Ar
40 21 60 1
41 22 23 Ar
42 22 40 1
43 22 53 Ar
44 23 24 Ar
45 23 41 1
46 24 25 Ar
47 25 26 Ar
48 25 42 1
49 26 43 1
50 26 53 Ar
51 27 28 Ar
52 27 44 1
53 27 48 Ar
54 28 29 Ar
55 28 45 1
56 29 30 Ar
57 29 58 1
58 30 31 Ar
59 30 46 1
60 31 47 1
61 31 48 Ar
62 48 49 1
63 49 50 2
64 49 51 1
65 51 52 1
66 53 54 1
67 54 55 2
68 54 56 1
69 56 57 1
70 59 60 1
71 61 62 Ar
72 61 63 Ar
73 62 64 Ar
74 62 65 1
75 63 66 Ar
76 63 67 1
77 64 68 Ar
78 64 69 1
79 66 68 Ar
80 66 70 1
81 68 71 1
82 71 72 1
83 71 74 2
84 72 73 1
