# Au_COOH3_OPT2
# Created by GaussView 6.0.16
#

#
#

@<TRIPOS>MOLECULE
Molecule Name
74 84
SMALL
NO_CHARGES


@<TRIPOS>ATOM
1 C1    -3.4014    -0.6930     0.3761 C
2 C2     3.2418    -1.5744    -0.3272 C
3 C3    -1.0817    -3.4832     0.3647 C
4 C4    -2.2628    -4.1984     0.7127 C
5 C5    -3.3157    -3.2879     0.7621 C
6 C6    -2.8070    -1.9832     0.4356 C
7 C7    -2.7013     0.5117     0.1146 C
8 C8    -3.2489     1.8334    -0.0678 C
9 C9    -2.2202     2.7050    -0.3269 C
10 C10    -0.9852     1.9612    -0.3145 C
11 N11    -1.3299     0.6554    -0.0510 N
12 C12     1.5052     1.6324    -0.5685 C
13 C13     2.8730     2.0479    -0.7545 C
14 C14     3.6718     0.9324    -0.7040 C
15 C15     2.8402    -0.2219    -0.4639 C
16 N16     1.5421     0.2676    -0.3998 N
17 C17     2.3584    -2.6696    -0.1224 C
18 C18     2.5702    -4.0693     0.1283 C
19 C19     1.3321    -4.6756     0.3275 C
20 C20     0.3292    -3.6715     0.2093 C
21 N21     1.0049    -2.5058    -0.0795 N
22 C22     6.9715    -1.5789     0.4088 C
23 C23     5.6066    -1.2780     0.4773 C
24 C24     4.6953    -1.8844    -0.3942 C
25 C25     5.1811    -2.8119    -1.3322 C
26 C26     6.5398    -3.1191    -1.3979 C
27 C27     0.2636     6.1954    -0.0478 C
28 C28     0.1202     4.8223     0.1832 C
29 C29     0.4993     3.8895    -0.7874 C
30 C30     1.0339     4.3617    -1.9976 C
31 C31     1.1856     5.7291    -2.2284 C
32 H32    -2.3218    -5.2596     0.9147 H
33 H33    -4.3440    -3.5116     1.0085 H
34 H34    -4.3011     2.0739    -0.0233 H
35 H35    -2.3025     3.7645    -0.5203 H
36 H36     3.1952     3.0681    -0.9031 H
37 H37     4.7454     0.9047    -0.8203 H
38 H38     3.5341    -4.5572     0.1615 H
39 H39     1.1563    -5.7205     0.5459 H
40 H40     5.2631    -0.5734     1.2261 H
41 H41     4.4843    -3.2821    -2.0191 H
42 H42     6.8961    -3.8337    -2.1337 H
43 H43    -0.2852     4.4908     1.1326 H
44 H44     1.3227     3.6474    -2.7625 H
45 H45     1.5966     6.0747    -3.1723 H
46 C46     0.3326     2.4271    -0.5455 C
47 N47    -1.4782    -2.1749     0.1925 N
48 Au48    -0.0564    -0.8576    -0.0997 Au
49 C49    -4.8682    -0.6123     0.6072 C
50 C50    -5.7487    -1.3833    -0.1637 C
51 C51    -5.4012     0.2193     1.6066 C
52 C52    -7.1292    -1.3223     0.0579 C
53 H53    -5.3561    -2.0215    -0.9459 H
54 C54    -6.7777     0.2853     1.8243 C
55 H55    -4.7260     0.8058     2.2216 H
56 C56    -7.6453    -0.4835     1.0542 C
57 H57    -7.1699     0.9313     2.6040 H
58 H58    -8.7179    -0.4495     1.2098 H
59 C59    -8.0864    -2.1277    -0.7423 C
60 O60    -9.2948    -2.1123    -0.6023 O
61 O61    -7.4805    -2.9081    -1.6675 O
62 H62    -8.1961    -3.3857    -2.1296 H
63 C63     0.7996     6.6523    -1.2591 C
64 H64     0.9098     7.7160    -1.4354 H
65 C65     7.4419    -2.5045    -0.5322 C
66 H66     8.4995    -2.7363    -0.5817 H
67 C67    -0.1657     7.1255     1.0269 C
68 O68    -0.6420     6.7843     2.0931 O
69 O69     0.0221     8.4278     0.7083 O
70 H70    -0.2900     8.9416     1.4778 H
71 C71     7.8795    -0.8904     1.3611 C
72 O72     9.1746    -1.2584     1.2187 O
73 H73     9.6750    -0.7502     1.8858 H
74 O74     7.5278    -0.0743     2.1917 O
@<TRIPOS>BOND
1 1 6 Ar
2 1 7 Ar
3 1 49 1
4 2 15 Ar
5 2 17 Ar
6 2 24 1
7 3 4 Ar
8 3 20 Ar
9 3 47 Ar
10 4 5 Ar
11 4 32 1
12 5 6 Ar
13 5 33 1
14 6 47 Ar
15 7 8 Ar
16 7 11 1
17 8 9 2
18 8 34 1
19 9 10 Ar
20 9 35 1
21 10 11 Ar
22 10 46 Ar
23 11 48 1
24 12 13 Ar
25 12 16 Ar
26 12 46 Ar
27 13 14 2
28 13 36 1
29 14 15 Ar
30 14 37 1
31 15 16 1
32 16 48 1
33 17 18 Ar
34 17 21 Ar
35 18 19 Ar
36 18 38 1
37 19 20 Ar
38 19 39 1
39 20 21 Ar
40 21 48 1
41 22 23 Ar
42 22 65 Ar
43 22 71 1
44 23 24 Ar
45 23 40 1
46 24 25 Ar
47 25 26 Ar
48 25 41 1
49 26 42 1
50 26 65 Ar
51 27 28 Ar
52 27 63 Ar
53 27 67 1
54 28 29 Ar
55 28 43 1
56 29 30 Ar
57 29 46 1
58 30 31 Ar
59 30 44 1
60 31 45 1
61 31 63 Ar
62 47 48 1
63 49 50 Ar
64 49 51 Ar
65 50 52 Ar
66 50 53 1
67 51 54 Ar
68 51 55 1
69 52 56 Ar
70 52 59 1
71 54 56 Ar
72 54 57 1
73 56 58 1
74 59 60 2
75 59 61 1
76 61 62 1
77 63 64 1
78 65 66 1
79 67 68 2
80 67 69 1
81 69 70 1
82 71 72 1
83 71 74 2
84 72 73 1
