# 4MePh3_NO2_2_TD
# Created by GaussView 6.0.16
#

#
#

@<TRIPOS>MOLECULE
Molecule Name
78 85
SMALL
NO_CHARGES


@<TRIPOS>ATOM
1 C1     3.3973    -0.4038    -0.1102 C
2 C2    -0.3868     2.7669     0.0114 C
3 C3    -3.4482    -1.0675    -0.0990 C
4 C4     0.8788    -3.0228    -0.3758 C
5 C5     1.9935    -3.7918     0.0440 C
6 C6     2.7263    -1.6624    -0.1693 C
7 N7     1.3901    -1.7526    -0.5280 N
8 C8     2.6862     0.8039    -0.1078 C
9 C9     3.1849     2.1311    -0.3384 C
10 C10     2.1343     3.0116    -0.3111 C
11 C11     0.9242     2.2787    -0.0596 C
12 N12     1.3026     0.9512     0.0321 N
13 C13    -1.5650     1.9662     0.0591 C
14 C14    -2.9150     2.5071     0.1560 C
15 C15    -3.7699     1.4482     0.1212 C
16 C16    -2.9552     0.2493     0.0205 C
17 N17    -1.6145     0.6074    -0.0052 N
18 C18    -2.5795    -2.1740    -0.3095 C
19 C19    -2.7583    -3.5865    -0.2953 C
20 C20    -1.5010    -4.1818    -0.3653 C
21 C21    -0.5355    -3.1440    -0.4230 C
22 N22    -1.2357    -1.9631    -0.4318 N
23 C23    -0.5401     4.2507    -0.0057 C
24 C24     0.0204     5.0427     1.0061 C
25 C25    -0.8114     7.0756    -0.0405 C
26 H26     0.9355    -1.0426    -1.0868 H
27 H27     4.2173     2.3596    -0.5588 H
28 H28     2.1740     4.0750    -0.4947 H
29 H29     0.6778     0.2721     0.4454 H
30 H30    -3.1689     3.5539     0.2369 H
31 H31    -4.8499     1.4756     0.1396 H
32 H32    -3.7073    -4.0960    -0.2122 H
33 H33    -1.2742    -5.2352    -0.3686 H
34 H34    -0.9055    -0.9989    -0.2922 H
35 C35    -1.2365     4.8973    -1.0393 C
36 H36     0.5536     4.5625     1.8214 H
37 H37    -1.6701     4.3042    -1.8391 H
38 C38    -4.8986    -1.3428     0.0227 C
39 C39    -5.5693    -2.1024    -0.9501 C
40 C40    -5.6405    -0.8750     1.1199 C
41 C41    -6.9297    -2.3736    -0.8322 C
42 H42    -5.0210    -2.4598    -1.8164 H
43 C43    -7.0006    -1.1497     1.2312 C
44 H44    -5.1381    -0.3072     1.8967 H
45 C45    -7.6708    -1.9054     0.2605 C
46 H46    -7.4273    -2.9528    -1.6064 H
47 H47    -7.5508    -0.7790     2.0927 H
48 C48     4.8726    -0.3986    -0.0319 C
49 C49     5.6404    -1.2536    -0.8427 C
50 C50     5.5547     0.4362     0.8707 C
51 C51     7.0287    -1.2657    -0.7556 C
52 H52     5.1419    -1.9031    -1.5553 H
53 C53     6.9440     0.4226     0.9477 C
54 H54     4.9850     1.0776     1.5355 H
55 C55     7.7086    -0.4265     0.1369 C
56 H56     7.5968    -1.9352    -1.3969 H
57 H57     7.4442     1.0706     1.6635 H
58 C58    -1.3705     6.2828    -1.0525 C
59 H59    -1.9131     6.7594    -1.8658 H
60 C60    -0.1148     6.4302     0.9875 C
61 H61     0.3219     7.0203     1.7896 H
62 C62    -0.9382     8.5779    -0.0761 C
63 H63    -0.7472     9.0197     0.9073 H
64 H64    -0.2206     9.0207    -0.7798 H
65 H65    -1.9381     8.8894    -0.3988 H
66 C66     9.2142    -0.4235     0.2073 C
67 H67     9.6289    -1.4084    -0.0322 H
68 H68     9.6425     0.2915    -0.5084 H
69 H69     9.5685    -0.1369     1.2030 H
70 C70    -9.1355    -2.2322     0.4048 C
71 H71    -9.6144    -2.3678    -0.5707 H
72 H72    -9.2787    -3.1631     0.9700 H
73 H73    -9.6724    -1.4420     0.9406 H
74 N74     1.9858    -5.1777     0.3696 N
75 O75     0.9400    -5.8168     0.1896 O
76 O76     3.0321    -5.6735     0.8041 O
77 C77     3.1200    -2.9604     0.1815 C
78 H78     4.0866    -3.2662     0.5480 H
@<TRIPOS>BOND
1 1 6 Ar
2 1 8 Ar
3 1 48 1
4 2 11 Ar
5 2 13 Ar
6 2 23 1
7 3 16 Ar
8 3 18 Ar
9 3 38 1
10 4 5 Ar
11 4 7 Ar
12 4 21 Ar
13 5 74 1
14 5 77 Ar
15 6 7 1
16 6 77 Ar
17 7 26 1
18 8 9 Ar
19 8 12 1
20 9 10 2
21 9 27 1
22 10 11 Ar
23 10 28 1
24 11 12 1
25 12 29 1
26 13 14 1
27 13 17 Ar
28 14 15 2
29 14 30 1
30 15 16 1
31 15 31 1
32 16 17 1
33 18 19 Ar
34 18 22 Ar
35 19 20 Ar
36 19 32 1
37 20 21 Ar
38 20 33 1
39 21 22 Ar
40 22 34 1
41 23 24 Ar
42 23 35 Ar
43 24 36 1
44 24 60 Ar
45 25 58 Ar
46 25 60 Ar
47 25 62 1
48 35 37 1
49 35 58 Ar
50 38 39 Ar
51 38 40 Ar
52 39 41 Ar
53 39 42 1
54 40 43 Ar
55 40 44 1
56 41 45 Ar
57 41 46 1
58 43 45 Ar
59 43 47 1
60 45 70 1
61 48 49 Ar
62 48 50 Ar
63 49 51 Ar
64 49 52 1
65 50 53 Ar
66 50 54 1
67 51 55 Ar
68 51 56 1
69 53 55 Ar
70 53 57 1
71 55 66 1
72 58 59 1
73 60 61 1
74 62 63 1
75 62 64 1
76 62 65 1
77 66 67 1
78 66 68 1
79 66 69 1
80 70 71 1
81 70 72 1
82 70 73 1
83 74 75 Ar
84 74 76 Ar
85 77 78 1
