# Au_F3_OPT
# Created by GaussView 6.0.16
#

#
#

@<TRIPOS>MOLECULE
Molecule Name
68 78
SMALL
NO_CHARGES


@<TRIPOS>ATOM
1 C1    -1.6055     3.3809     0.0079 C
2 C2    -1.6448    -3.3632     0.0037 C
3 C3    -4.0927     0.7390    -0.0857 C
4 C4    -4.9751     1.8493     0.0381 C
5 C5    -4.2016     3.0076     0.0776 C
6 C6    -2.8172     2.6365    -0.0279 C
7 C7    -0.3075     2.8117    -0.0040 C
8 C8     0.9597     3.4972    -0.0631 C
9 C9     1.9670     2.5640    -0.0761 C
10 C10     1.3679     1.2536    -0.0243 C
11 N11     0.0079     1.4582     0.0123 N
12 C12     1.3540    -1.2727    -0.0389 C
13 C13     1.9385    -2.5905    -0.0111 C
14 C14     0.9201    -3.5116    -0.0070 C
15 C15    -0.3399    -2.8104    -0.0133 C
16 N16    -0.0084    -1.4614    -0.0430 N
17 C17    -2.8474    -2.6052    -0.0443 C
18 C18    -4.2359    -2.9604     0.0638 C
19 C19    -4.9959    -1.7933     0.0275 C
20 C20    -4.1011    -0.6930    -0.0958 C
21 N21    -2.8403    -1.2451    -0.1592 N
22 C22    -1.3374    -6.9229     1.2928 C
23 C23    -1.1951    -5.5402     1.1839 C
24 C24    -1.7800    -4.8409     0.1151 C
25 C25    -2.5184    -5.5636    -0.8362 C
26 C26    -2.6621    -6.9462    -0.7250 C
27 C27     5.6173     0.5523     0.9785 C
28 C28     4.2271     0.5616     0.9909 C
29 C29     3.4941    -0.0215    -0.0567 C
30 C30     4.1957    -0.6134    -1.1172 C
31 C31     5.5891    -0.6302    -1.1334 C
32 H32    -6.0537     1.7947     0.1012 H
33 H33    -4.5678     4.0195     0.1761 H
34 H34     1.0739     4.5703    -0.1107 H
35 H35     3.0283     2.7578    -0.1304 H
36 H36     2.9985    -2.7972     0.0059 H
37 H37     1.0229    -4.5869    -0.0033 H
38 H38    -4.6136    -3.9682     0.1605 H
39 H39    -6.0736    -1.7262     0.0949 H
40 H40    -0.6407    -4.9894     1.9375 H
41 H41    -2.9681    -5.0353    -1.6712 H
42 H42    -3.2308    -7.4896    -1.4745 H
43 H43     3.6965     1.0132     1.8229 H
44 H44     3.6421    -1.0564    -1.9389 H
45 H45     6.1181    -1.0878    -1.9618 H
46 C46     2.0037    -0.0129    -0.0399 C
47 N47    -2.8255     1.2765    -0.1408 N
48 Au48    -1.3321     0.0069    -0.0916 Au
49 C49    -1.7216     4.8618     0.0781 C
50 C50    -2.4670     5.5637    -0.8837 C
51 C51    -1.1081     5.5870     1.1129 C
52 C52    -2.5902     6.9508    -0.8154 C
53 H53    -2.9368     5.0147    -1.6939 H
54 C54    -1.2301     6.9744     1.1790 C
55 H55    -0.5478     5.0524     1.8738 H
56 C56    -1.9712     7.6612     0.2151 C
57 H57    -0.7527     7.5180     1.9895 H
58 H58    -2.0667     8.7420     0.2674 H
59 C59     6.3007    -0.0467    -0.0851 C
60 C60    -2.0710    -7.6309     0.3387 C
61 H61    -2.1827    -8.7080     0.4245 H
62 H62    -0.8820    -7.4456     2.1293 H
63 H63     6.1724     0.9998     1.7974 H
64 H64    -3.1641     7.4775    -1.5728 H
65 C65     7.8009    -0.0452    -0.0680 C
66 F66     8.2891    -0.6583     1.0378 F
67 F67     8.3004     1.2148    -0.0530 F
68 F68     8.3346    -0.6717    -1.1384 F
@<TRIPOS>BOND
1 1 6 Ar
2 1 7 Ar
3 1 49 1
4 2 15 Ar
5 2 17 Ar
6 2 24 1
7 3 4 Ar
8 3 20 Ar
9 3 47 Ar
10 4 5 Ar
11 4 32 1
12 5 6 Ar
13 5 33 1
14 6 47 Ar
15 7 8 Ar
16 7 11 1
17 8 9 2
18 8 34 1
19 9 10 Ar
20 9 35 1
21 10 11 Ar
22 10 46 Ar
23 11 48 1
24 12 13 Ar
25 12 16 Ar
26 12 46 Ar
27 13 14 2
28 13 36 1
29 14 15 Ar
30 14 37 1
31 15 16 1
32 16 48 1
33 17 18 Ar
34 17 21 Ar
35 18 19 Ar
36 18 38 1
37 19 20 Ar
38 19 39 1
39 20 21 Ar
40 21 48 1
41 22 23 Ar
42 22 60 Ar
43 22 62 1
44 23 24 Ar
45 23 40 1
46 24 25 Ar
47 25 26 Ar
48 25 41 1
49 26 42 1
50 26 60 Ar
51 27 28 Ar
52 27 59 Ar
53 27 63 1
54 28 29 Ar
55 28 43 1
56 29 30 Ar
57 29 46 1
58 30 31 Ar
59 30 44 1
60 31 45 1
61 31 59 Ar
62 47 48 1
63 49 50 Ar
64 49 51 Ar
65 50 52 Ar
66 50 53 1
67 51 54 Ar
68 51 55 1
69 52 56 Ar
70 52 64 1
71 54 56 Ar
72 54 57 1
73 56 58 1
74 59 65 1
75 60 61 1
76 65 66 1
77 65 67 1
78 65 68 1
