# Au_F5_OPT
# Created by GaussView 6.0.16
#

#
#

@<TRIPOS>MOLECULE
Molecule Name
65 75
SMALL
NO_CHARGES


@<TRIPOS>ATOM
1 C1    -3.3316    -1.5953    -0.0558 C
2 C2     3.4118    -1.4236     0.0774 C
3 C3    -0.6114    -3.9986    -0.0983 C
4 C4    -1.6954    -4.9151     0.0042 C
5 C5    -2.8782    -4.1780     0.0204 C
6 C6    -2.5482    -2.7835    -0.0788 C
7 C7    -2.8047    -0.2812    -0.0557 C
8 C8    -3.5271     0.9662    -0.1134 C
9 C9    -2.6241     2.0001    -0.1028 C
10 C10    -1.2988     1.4377    -0.0434 C
11 N11    -1.4613     0.0748    -0.0209 N
12 C12     1.2287     1.5030     0.0101 C
13 C13     2.5247     2.1320     0.0411 C
14 C14     3.4787     1.1451     0.0610 C
15 C15     2.8190    -0.1379     0.0566 C
16 N16     1.4595     0.1498     0.0169 N
17 C17     2.6921    -2.6502     0.0178 C
18 C18     3.0888    -4.0269     0.1233 C
19 C19     1.9465    -4.8231     0.0632 C
20 C20     0.8214    -3.9621    -0.0730 C
21 N21     1.3344    -2.6849    -0.1172 N
22 C22     6.9518    -1.0033     1.3881 C
23 C23     5.5660    -0.9048     1.2710 C
24 C24     4.8922    -1.5126     0.1988 C
25 C25     5.6432    -2.2282    -0.7480 C
26 C26     7.0290    -2.3272    -0.6290 C
27 C27    -0.6939     5.7178     0.9987 C
28 C28    -0.6420     4.3277     1.0115 C
29 C29    -0.0909     3.5938    -0.0437 C
30 C30     0.4171     4.3258    -1.1219 C
31 C31     0.3894     5.7163    -1.1511 C
32 H32    -1.6084    -5.9915     0.0696 H
33 H33    -3.8800    -4.5755     0.0990 H
34 H34    -4.6026     1.0490    -0.1707 H
35 H35    -2.8495     3.0561    -0.1455 H
36 H36     2.6988     3.1985     0.0487 H
37 H37     4.5498     1.2836     0.0688 H
38 H38     4.1062    -4.3735     0.2347 H
39 H39     1.9121    -5.9028     0.1220 H
40 H40     4.9937    -0.3678     2.0213 H
41 H41     5.1344    -2.6944    -1.5860 H
42 H42     7.5946    -2.8781    -1.3753 H
43 C43    -0.0514     2.1069    -0.0236 C
44 N44    -1.1865    -2.7492    -0.1653 N
45 Au45     0.0344    -1.2175    -0.0800 Au
46 C46    -4.8091    -1.7597    -0.0119 C
47 C47    -5.4684    -2.5229    -0.9895 C
48 C48    -5.5714    -1.1748     1.0125 C
49 C49    -6.8519    -2.6907    -0.9469 C
50 H50    -4.8899    -2.9709    -1.7915 H
51 C51    -6.9550    -1.3420     1.0529 C
52 H52    -5.0687    -0.6017     1.7855 H
53 C53    -7.6000    -2.1000     0.0734 C
54 H54    -7.5282    -0.8865     1.8556 H
55 H55    -8.6779    -2.2307     0.1060 H
56 C56    -0.1719     6.4148    -0.0866 C
57 C57     7.6882    -1.7142     0.4384 C
58 H58     8.7679    -1.7914     0.5303 H
59 H59     7.4550    -0.5314     2.2273 H
60 H60    -7.3462    -3.2775    -1.7161 H
61 F61    -1.1415     3.6928     2.0824 F
62 F62    -1.2282     6.3883     2.0273 F
63 F63     0.9513     3.6882    -2.1742 F
64 F64     0.8852     6.3850    -2.1999 F
65 F65    -0.2091     7.7508    -0.1063 F
@<TRIPOS>BOND
1 1 6 Ar
2 1 7 Ar
3 1 46 1
4 2 15 Ar
5 2 17 Ar
6 2 24 1
7 3 4 Ar
8 3 20 Ar
9 3 44 Ar
10 4 5 Ar
11 4 32 1
12 5 6 Ar
13 5 33 1
14 6 44 Ar
15 7 8 Ar
16 7 11 1
17 8 9 2
18 8 34 1
19 9 10 Ar
20 9 35 1
21 10 11 Ar
22 10 43 Ar
23 11 45 1
24 12 13 Ar
25 12 16 Ar
26 12 43 Ar
27 13 14 2
28 13 36 1
29 14 15 Ar
30 14 37 1
31 15 16 1
32 16 45 1
33 17 18 Ar
34 17 21 Ar
35 18 19 Ar
36 18 38 1
37 19 20 Ar
38 19 39 1
39 20 21 Ar
40 21 45 1
41 22 23 Ar
42 22 57 Ar
43 22 59 1
44 23 24 Ar
45 23 40 1
46 24 25 Ar
47 25 26 Ar
48 25 41 1
49 26 42 1
50 26 57 Ar
51 27 28 Ar
52 27 56 Ar
53 27 62 1
54 28 29 Ar
55 28 61 1
56 29 30 Ar
57 29 43 1
58 30 31 Ar
59 30 63 1
60 31 56 Ar
61 31 64 1
62 44 45 1
63 46 47 Ar
64 46 48 Ar
65 47 49 Ar
66 47 50 1
67 48 51 Ar
68 48 52 1
69 49 53 Ar
70 49 60 1
71 51 53 Ar
72 51 54 1
73 53 55 1
74 56 65 1
75 57 58 1
