# Au_F15_Br4_OPT
# Created by GaussView 6.0.16
#

#
#

@<TRIPOS>MOLECULE
Molecule Name
65 75
SMALL
NO_CHARGES


@<TRIPOS>ATOM
1 C1     3.3548    -0.0034     0.0160 C
2 C2     0.0005     3.6133     0.0001 C
3 C3    -3.3549    -0.0025    -0.0158 C
4 C4     0.7161    -2.5061    -0.0089 C
5 C5     1.8359    -3.3853    -0.0620 C
6 C6     2.9994    -2.6107    -0.0655 C
7 C7     2.6284    -1.2227    -0.0107 C
8 N8     1.2626    -1.2405     0.0182 N
9 C9     2.7918     1.2885     0.0213 C
10 C10     3.4948     2.5483     0.0721 C
11 C11     2.5728     3.5616     0.0652 C
12 C12     1.2579     2.9706     0.0124 C
13 N13     1.4466     1.6109    -0.0178 N
14 C14    -1.2572     2.9710    -0.0121 C
15 C15    -2.5719     3.5623    -0.0645 C
16 C16    -3.4942     2.5494    -0.0715 C
17 C17    -2.7915     1.2893    -0.0208 C
18 N18    -1.4463     1.6114     0.0181 N
19 C19    -2.6288    -1.2220     0.0103 C
20 C20    -3.0002    -2.6099     0.0655 C
21 C21    -1.8369    -3.3848     0.0615 C
22 C22    -0.7168    -2.5059     0.0077 C
23 N23    -1.2630    -1.2402    -0.0195 N
24 C24    -4.8409    -0.0599    -0.0828 C
25 C25    -5.4912    -0.3731    -1.2770 C
26 C26    -6.8767    -0.4437    -1.3593 C
27 C27    -7.6426    -0.1925    -0.2237 C
28 C28    -7.0213     0.1296     0.9798 C
29 C29    -5.6330     0.1954     1.0367 C
30 C30     0.0008     5.1011    -0.0001 C
31 C31    -0.5290     5.8321     1.0677 C
32 C32    -0.5389     7.2230     1.0762 C
33 C33     0.0015     7.9200    -0.0006 C
34 C34     0.5416     7.2223    -1.0771 C
35 C35     0.5308     5.8314    -1.0682 C
36 C36     4.8408    -0.0611     0.0831 C
37 C37     5.6329     0.1931    -1.0365 C
38 C38     7.0213     0.1271    -0.9796 C
39 C39     7.6424    -0.1942     0.2242 C
40 C40     6.8765    -0.4444     1.3599 C
41 C41     5.4910    -0.3736     1.2776 C
42 H42    -4.5691     2.6515    -0.1139 H
43 H43    -2.7737     4.6229    -0.1028 H
44 H44     2.7749     4.6221     0.1037 H
45 H45     4.5697     2.6501     0.1145 H
46 F46    -4.7724    -0.6370    -2.3764 F
47 F47    -7.4770    -0.7531    -2.5138 F
48 F48    -8.9742    -0.2579    -0.2905 F
49 F49    -7.7598     0.3719     2.0684 F
50 F50    -5.0574     0.5024     2.2072 F
51 F51    -1.0524     7.8923     2.1140 F
52 F52     0.0019     9.2548    -0.0009 F
53 F53     1.0554     7.8910    -2.1153 F
54 F54     1.0484     5.1913    -2.1265 F
55 F55     5.0574     0.4994    -2.2073 F
56 F56     7.7598     0.3686    -2.0684 F
57 F57     8.9741    -0.2598     0.2910 F
58 F58     7.4768    -0.7531     2.5146 F
59 F59     4.7721    -0.6366     2.3771 F
60 Au60    -0.0000     0.2673    -0.0002 Au
61 Br61     1.8084    -5.2543    -0.1439 Br
62 Br62     4.7287    -3.3303    -0.1824 Br
63 Br63    -1.8100    -5.2538     0.1432 Br
64 Br64    -4.7296    -3.3290     0.1837 Br
65 F65    -1.0469     5.1926     2.1263 F
@<TRIPOS>BOND
1 1 7 Ar
2 1 9 Ar
3 1 36 1
4 2 12 Ar
5 2 14 Ar
6 2 30 1
7 3 17 Ar
8 3 19 Ar
9 3 24 1
10 4 5 Ar
11 4 8 Ar
12 4 22 Ar
13 5 6 Ar
14 5 61 1
15 6 7 Ar
16 6 62 1
17 7 8 Ar
18 8 60 1
19 9 10 Ar
20 9 13 1
21 10 11 2
22 10 45 1
23 11 12 Ar
24 11 44 1
25 12 13 Ar
26 13 60 1
27 14 15 Ar
28 14 18 Ar
29 15 16 2
30 15 43 1
31 16 17 Ar
32 16 42 1
33 17 18 1
34 18 60 1
35 19 20 Ar
36 19 23 Ar
37 20 21 Ar
38 20 64 1
39 21 22 Ar
40 21 63 1
41 22 23 Ar
42 23 60 1
43 24 25 Ar
44 24 29 Ar
45 25 26 Ar
46 25 46 1
47 26 27 Ar
48 26 47 1
49 27 28 Ar
50 27 48 1
51 28 29 Ar
52 28 49 1
53 29 50 1
54 30 31 Ar
55 30 35 Ar
56 31 32 Ar
57 31 65 1
58 32 33 Ar
59 32 51 1
60 33 34 Ar
61 33 52 1
62 34 35 Ar
63 34 53 1
64 35 54 1
65 36 37 Ar
66 36 41 Ar
67 37 38 Ar
68 37 55 1
69 38 39 Ar
70 38 56 1
71 39 40 Ar
72 39 57 1
73 40 41 Ar
74 40 58 1
75 41 59 1
