# Au_F15_Br8_OPT
# Created by GaussView 6.0.16
#

#
#

@<TRIPOS>MOLECULE
Molecule Name
65 75
SMALL
NO_CHARGES


@<TRIPOS>ATOM
1 C1    -3.3675     0.7187     0.0114 C
2 C2    -0.0001    -2.9144     0.0000 C
3 C3     3.3676     0.7185    -0.0114 C
4 C4    -0.7117     3.1939    -0.0067 C
5 C5    -1.8245     4.0817    -0.0630 C
6 C6    -2.9900     3.3167    -0.0683 C
7 C7    -2.6225     1.9213    -0.0124 C
8 N8    -1.2591     1.9294     0.0236 N
9 C9    -2.8250    -0.5863     0.0431 C
10 C10    -3.5194    -1.8561     0.1095 C
11 C11    -2.5905    -2.8733     0.1122 C
12 C12    -1.2668    -2.2841     0.0413 C
13 N13    -1.4762    -0.9228     0.0088 N
14 C14     1.2667    -2.2841    -0.0413 C
15 C15     2.5903    -2.8735    -0.1121 C
16 C16     3.5193    -1.8563    -0.1095 C
17 C17     2.8250    -0.5865    -0.0431 C
18 N18     1.4762    -0.9229    -0.0088 N
19 C19     2.6226     1.9211     0.0124 C
20 C20     2.9902     3.3165     0.0682 C
21 C21     1.8248     4.0816     0.0629 C
22 C22     0.7119     3.1938     0.0065 C
23 N23     1.2592     1.9293    -0.0237 N
24 C24     4.8477     0.8740     0.0062 C
25 C25     5.5679     1.0598    -1.1722 C
26 C26     6.9460     1.2338    -1.1619 C
27 C27     7.6251     1.2324     0.0543 C
28 C28     6.9274     1.0562     1.2469 C
29 C29     5.5499     0.8811     1.2096 C
30 C30    -0.0001    -4.4039     0.0001 C
31 C31     0.1111    -5.1219     1.1890 C
32 C32     0.1106    -6.5106     1.2029 C
33 C33    -0.0002    -7.2046     0.0002 C
34 C34    -0.1109    -6.5107    -1.2026 C
35 C35    -0.1114    -5.1220    -1.1887 C
36 C36    -4.8477     0.8743    -0.0062 C
37 C37    -5.5499     0.8809    -1.2096 C
38 C38    -6.9274     1.0560    -1.2469 C
39 C39    -7.6251     1.2326    -0.0543 C
40 C40    -6.9459     1.2344     1.1618 C
41 C41    -5.5678     1.0604     1.1721 C
42 F42     4.9295     1.0654    -2.3498 F
43 F43     7.6218     1.4045    -2.3027 F
44 F44     8.9485     1.4013     0.0770 F
45 F45     7.5845     1.0576     2.4112 F
46 F46     4.8921     0.7099     2.3641 F
47 F47     0.2193    -7.1833     2.3533 F
48 F48    -0.0002    -8.5389     0.0002 F
49 F49    -0.2197    -7.1834    -2.3529 F
50 F50    -0.2256    -4.4689    -2.3530 F
51 F51    -4.8921     0.7093    -2.3641 F
52 F52    -7.5846     1.0570    -2.4111 F
53 F53    -8.9484     1.4014    -0.0771 F
54 F54    -7.6217     1.4056     2.3026 F
55 F55    -4.9293     1.0665     2.3497 F
56 Au56     0.0000     0.4150    -0.0001 Au
57 Br57    -1.7860     5.9483    -0.1441 Br
58 Br58    -4.7013     4.0793    -0.1616 Br
59 Br59     1.7864     5.9482     0.1440 Br
60 Br60     4.7016     4.0789     0.1617 Br
61 F61     0.2253    -4.4688     2.3532 F
62 Br62    -5.3648    -2.1862     0.2058 Br
63 Br63    -3.0962    -4.6793     0.2247 Br
64 Br64     3.0959    -4.6795    -0.2247 Br
65 Br65     5.3647    -2.1867    -0.2059 Br
@<TRIPOS>BOND
1 1 7 Ar
2 1 9 Ar
3 1 36 1
4 2 12 Ar
5 2 14 Ar
6 2 30 1
7 3 17 Ar
8 3 19 Ar
9 3 24 1
10 4 5 Ar
11 4 8 Ar
12 4 22 Ar
13 5 6 Ar
14 5 57 1
15 6 7 Ar
16 6 58 1
17 7 8 Ar
18 8 56 1
19 9 10 1
20 9 13 1
21 10 11 2
22 10 62 1
23 11 12 1
24 11 63 1
25 12 13 Ar
26 13 56 1
27 14 15 1
28 14 18 Ar
29 15 16 2
30 15 64 1
31 16 17 1
32 16 65 1
33 17 18 1
34 18 56 1
35 19 20 Ar
36 19 23 Ar
37 20 21 Ar
38 20 60 1
39 21 22 Ar
40 21 59 1
41 22 23 Ar
42 23 56 1
43 24 25 Ar
44 24 29 Ar
45 25 26 Ar
46 25 42 1
47 26 27 Ar
48 26 43 1
49 27 28 Ar
50 27 44 1
51 28 29 Ar
52 28 45 1
53 29 46 1
54 30 31 Ar
55 30 35 Ar
56 31 32 Ar
57 31 61 1
58 32 33 Ar
59 32 47 1
60 33 34 Ar
61 33 48 1
62 34 35 Ar
63 34 49 1
64 35 50 1
65 36 37 Ar
66 36 41 Ar
67 37 38 Ar
68 37 51 1
69 38 39 Ar
70 38 52 1
71 39 40 Ar
72 39 53 1
73 40 41 Ar
74 40 54 1
75 41 55 1
