# Au_F15_SO2Cl_OPT
# Created by GaussView 6.0.16
#

#
#

@<TRIPOS>MOLECULE
Molecule Name
91 101
SMALL
NO_CHARGES


@<TRIPOS>ATOM
1 C1     3.1442     0.0582     0.0785 C
2 C2    -0.5816     3.2925    -0.0015 C
3 C3    -3.5461    -0.6503     0.0621 C
4 C4     0.7728    -2.6872     0.4163 C
5 C5     1.9313    -3.4830     0.3838 C
6 C6     3.0217    -2.6072     0.2602 C
7 C7     2.5496    -1.2392     0.1999 C
8 N8     1.2052    -1.3815     0.3097 N
9 C9     2.4464     1.2756     0.0201 C
10 C10     3.0122     2.6111    -0.0133 C
11 C11     1.9894     3.5185    -0.0103 C
12 C12     0.7377     2.7903     0.0145 C
13 N13     1.0789     1.4697     0.0250 N
14 C14    -1.7684     2.5193    -0.0062 C
15 C15    -3.1384     2.9729    -0.1031 C
16 C16    -3.9538     1.8740    -0.0964 C
17 C17    -3.1300     0.6887     0.0038 C
18 N18    -1.8277     1.1602     0.0617 N
19 C19    -2.6835    -1.7782     0.2188 C
20 C20    -2.9249    -3.1779     0.2485 C
21 C21    -1.6803    -3.8084     0.3963 C
22 C22    -0.6547    -2.8219     0.4397 C
23 N23    -1.3324    -1.6416     0.3587 N
24 C24    -7.0771    -0.9183    -1.3178 C
25 C25    -5.7194    -0.6368    -1.2085 C
26 C26    -4.9982    -0.9357    -0.0483 C
27 C27    -5.6944    -1.5374     1.0050 C
28 C28    -7.0499    -1.8332     0.9146 C
29 C29    -0.4691     6.8577    -1.3066 C
30 C30    -0.3261     5.4779    -1.2121 C
31 C31    -0.7426     4.7675    -0.0826 C
32 C32    -1.3278     5.4982     0.9548 C
33 C33    -1.4916     6.8775     0.8786 C
34 C34     6.6910     0.3924     1.3606 C
35 C35     5.3097     0.2683     1.3072 C
36 C36     4.6274     0.1801     0.0938 C
37 C37     5.3746     0.2463    -1.0806 C
38 C38     6.7612     0.3563    -1.0524 C
39 C39    -1.0569     7.5581    -0.2560 C
40 C40    -7.7424    -1.5200    -0.2526 C
41 C41     7.4176     0.4276     0.1728 C
42 C42    -0.2403    -0.2138    -1.9874 C
43 C43    -0.2978    -1.4593    -2.6052 C
44 C44    -0.1941     0.9228    -2.7912 C
45 C45    -0.3123    -1.5121    -4.0032 C
46 H46    -0.3293    -2.3892    -2.0489 H
47 C47    -0.2148     0.7583    -4.1799 C
48 H48    -0.1389     1.9255    -2.3830 H
49 N49    -0.2745    -0.4310    -4.7885 N
50 H50    -0.3561    -2.4768    -4.5058 H
51 H51    -0.1806     1.6328    -4.8277 H
52 F52    -0.0595     7.5114    -2.3978 F
53 F53    -5.1027    -0.0694    -2.2536 F
54 F54    -7.7424    -0.6238    -2.4382 F
55 F55    -9.0433    -1.7936    -0.3491 F
56 F56    -7.6911    -2.4008     1.9394 F
57 F57    -5.0536    -1.8312     2.1458 F
58 F58    -1.7509     4.8674     2.0589 F
59 F59    -2.0531     7.5520     1.8864 F
60 F60    -1.2051     8.8810    -0.3379 F
61 F61     0.2270     4.8229    -2.2452 F
62 F62     4.7595     0.2058    -2.2693 F
63 F63     4.6234     0.2140     2.4591 F
64 F64     7.3252     0.4669     2.5347 F
65 F65     7.4607     0.4059    -2.1901 F
66 F66     8.7462     0.5404     0.2104 F
67 C67    -0.2162     0.2090     2.3399 C
68 C68     0.9784     0.3551     3.0385 C
69 C69    -1.4109     0.2017     3.0534 C
70 C70     0.9204     0.4971     4.4292 C
71 H71     1.9461     0.3633     2.5505 H
72 C72    -1.3557     0.3494     4.4433 C
73 H73    -2.3753     0.0850     2.5720 H
74 N74    -0.2182     0.4977     5.1303 N
75 H75     1.8410     0.6151     4.9986 H
76 H76    -2.2763     0.3468     5.0248 H
77 S77     4.6303    -3.2967     0.1066 S
78 S78    -1.4133    -5.5291     0.3887 S
79 O79     5.6346    -2.5339     0.8364 O
80 O80     4.5183    -4.7402     0.2691 O
81 O81    -0.1593    -5.8264     1.0723 O
82 O82    -2.6566    -6.2238     0.6917 O
83 Cl83     5.0386    -2.9705    -1.9604 Cl
84 Cl84    -1.0260    -5.8838    -1.6854 Cl
85 Au85    -0.2250    -0.0150     0.1810 Au
86 H86    -3.4416     4.0073    -0.1741 H
87 H87    -5.0332     1.8681    -0.1441 H
88 H88     2.0760     4.5951    -0.0214 H
89 H89     1.9769    -4.5595     0.4410 H
90 H90     4.0709     2.8246    -0.0305 H
91 H91    -3.8837    -3.6695     0.1772 H
@<TRIPOS>BOND
1 1 7 Ar
2 1 9 Ar
3 1 36 1
4 2 12 Ar
5 2 14 Ar
6 2 31 1
7 3 17 Ar
8 3 19 Ar
9 3 26 1
10 4 5 Ar
11 4 8 Ar
12 4 22 Ar
13 5 6 Ar
14 5 89 1
15 6 7 1
16 6 77 1
17 7 8 Ar
18 8 85 1
19 9 10 1
20 9 13 Ar
21 10 11 2
22 10 90 1
23 11 12 1
24 11 88 1
25 12 13 Ar
26 13 85 1
27 14 15 Ar
28 14 18 Ar
29 15 16 2
30 15 86 1
31 16 17 Ar
32 16 87 1
33 17 18 1
34 18 85 1
35 19 20 Ar
36 19 23 Ar
37 20 21 Ar
38 20 91 1
39 21 22 Ar
40 21 78 1
41 22 23 Ar
42 23 85 1
43 24 25 Ar
44 24 40 Ar
45 24 54 1
46 25 26 Ar
47 25 53 1
48 26 27 Ar
49 27 28 Ar
50 27 57 1
51 28 40 Ar
52 28 56 1
53 29 30 Ar
54 29 39 Ar
55 29 52 1
56 30 31 Ar
57 30 61 1
58 31 32 Ar
59 32 33 Ar
60 32 58 1
61 33 39 Ar
62 33 59 1
63 34 35 Ar
64 34 41 Ar
65 34 64 1
66 35 36 Ar
67 35 63 1
68 36 37 Ar
69 37 38 Ar
70 37 62 1
71 38 41 Ar
72 38 65 1
73 39 60 1
74 40 55 1
75 41 66 1
76 42 43 Ar
77 42 44 Ar
78 42 85 1
79 43 45 Ar
80 43 46 1
81 44 47 Ar
82 44 48 1
83 45 49 Ar
84 45 50 1
85 47 49 Ar
86 47 51 1
87 67 68 Ar
88 67 69 Ar
89 67 85 1
90 68 70 Ar
91 68 71 1
92 69 72 Ar
93 69 73 1
94 70 74 Ar
95 70 75 1
96 72 74 Ar
97 72 76 1
98 77 79 2
99 77 80 2
100 78 81 2
101 78 82 2
