# C12_py3_OPT
# Created by GaussView 6.0.16
#

#
#

@<TRIPOS>MOLECULE
Molecule Name
64 71
SMALL
NO_CHARGES


@<TRIPOS>ATOM
1 C1    -3.4439    -1.0239    -0.0279 C
2 C2     0.0075     2.5120    -0.0308 C
3 C3     3.4280    -1.0090    -0.0301 C
4 C4    -0.6899    -3.3553    -0.2741 C
5 C5    -1.6742    -4.2464     0.2024 C
6 C6    -2.8759    -3.5427     0.3170 C
7 C7    -2.6520    -2.2013    -0.0878 C
8 N8    -1.3259    -2.1443    -0.4627 N
9 C9    -2.8632     0.2601    -0.0589 C
10 C10    -3.4937     1.5201    -0.3157 C
11 C11    -2.5334     2.5037    -0.3232 C
12 C12    -1.2575     1.9014    -0.0687 C
13 N13    -1.5039     0.5476     0.0642 N
14 C14     1.2596     1.8393     0.0213 C
15 C15     2.5495     2.5092     0.1112 C
16 C16     3.5032     1.5362     0.1162 C
17 C17     2.8092     0.2632     0.0421 C
18 N18     1.4440     0.4877    -0.0083 N
19 C19     2.6787    -2.1960    -0.2202 C
20 C20     2.9744    -3.5900    -0.1265 C
21 C21     1.7722    -4.2891    -0.1877 C
22 C22     0.7257    -3.3386    -0.3206 C
23 N23     1.3236    -2.1105    -0.3836 N
24 C24     6.9607    -0.7253     1.2997 C
25 C25     5.5822    -0.5550     1.1998 C
26 C26     4.8947    -1.1377     0.1241 C
27 C27     5.6593    -1.8780    -0.7908 C
28 C28     7.0339    -1.9909    -0.5969 C
29 N29     7.6930    -1.4289     0.4253 N
30 C30    -0.6222     6.1648     0.7644 C
31 C31    -0.6473     4.7757     0.8714 C
32 C32     0.0148     4.0005    -0.0907 C
33 C33     0.6702     4.6908    -1.1204 C
34 C34     0.6381     6.0834    -1.1357 C
35 N35     0.0064     6.8261    -0.2164 N
36 C36    -6.9917    -2.2251    -0.5121 C
37 C37    -5.6119    -2.1183    -0.6625 C
38 C38    -4.9084    -1.1623     0.0890 C
39 C39    -5.6659    -0.3661     0.9639 C
40 C40    -7.0441    -0.5497     1.0342 C
41 N41    -7.7162    -1.4603     0.3164 N
42 H42    -1.4945    -5.2680     0.5083 H
43 H43    -3.8036    -3.9203     0.7224 H
44 H44    -4.5455     1.6430    -0.5287 H
45 H45    -2.6855     3.5519    -0.5333 H
46 H46     2.7066     3.5764     0.1695 H
47 H47     4.5747     1.6728     0.1462 H
48 H48     3.9597    -4.0141     0.0032 H
49 H49     1.6416    -5.3615    -0.1391 H
50 H50     7.5038    -0.2791     2.1308 H
51 H51     5.0440     0.0058     1.9563 H
52 H52     5.1883    -2.3418    -1.6511 H
53 H53     7.6376    -2.5573    -1.3037 H
54 H54    -1.1289     6.7771     1.5084 H
55 H55    -1.1651     4.3004     1.6981 H
56 H56     1.1881     4.1458    -1.9028 H
57 H57     1.1408     6.6302    -1.9314 H
58 H58    -7.5454    -2.9597    -1.0940 H
59 H59    -5.0898    -2.7553    -1.3683 H
60 H60    -5.1826     0.3699     1.5970 H
61 H61    -7.6383     0.0614     1.7111 H
62 H62    -0.8083    -0.0678     0.4639 H
63 H63    -0.9672    -1.4153    -1.0645 H
64 H64     0.9029    -1.1762    -0.2936 H
@<TRIPOS>BOND
1 1 7 Ar
2 1 9 Ar
3 1 38 1
4 2 12 Ar
5 2 14 Ar
6 2 32 1
7 3 17 Ar
8 3 19 Ar
9 3 26 1
10 4 5 Ar
11 4 8 Ar
12 4 22 Ar
13 5 6 Ar
14 5 42 1
15 6 7 Ar
16 6 43 1
17 7 8 Ar
18 8 63 1
19 9 10 Ar
20 9 13 1
21 10 11 2
22 10 44 1
23 11 12 Ar
24 11 45 1
25 12 13 1
26 13 62 1
27 14 15 1
28 14 18 Ar
29 15 16 2
30 15 46 1
31 16 17 1
32 16 47 1
33 17 18 1
34 19 20 Ar
35 19 23 Ar
36 20 21 Ar
37 20 48 1
38 21 22 Ar
39 21 49 1
40 22 23 Ar
41 23 64 1
42 24 25 Ar
43 24 29 Ar
44 24 50 1
45 25 26 Ar
46 25 51 1
47 26 27 Ar
48 27 28 Ar
49 27 52 1
50 28 29 Ar
51 28 53 1
52 30 31 Ar
53 30 35 Ar
54 30 54 1
55 31 32 Ar
56 31 55 1
57 32 33 Ar
58 33 34 Ar
59 33 56 1
60 34 35 Ar
61 34 57 1
62 36 37 Ar
63 36 41 Ar
64 36 58 1
65 37 38 Ar
66 37 59 1
67 38 39 Ar
68 39 40 Ar
69 39 60 1
70 40 41 Ar
71 40 61 1
