# Cl_CO2Et_TD
# Created by GaussView 6.0.16
#

#
#

@<TRIPOS>MOLECULE
Molecule Name
76 83
SMALL
NO_CHARGES


@<TRIPOS>ATOM
1 C1    -0.1930     3.8435    -0.0164 C
2 C2     1.5707    -0.7287    -0.1651 C
3 C3    -3.0900    -2.3257    -0.0479 C
4 C4    -3.4687     2.4208    -0.1319 C
5 C5    -3.8656     3.7810    -0.0089 C
6 C6    -2.7125     4.5623    -0.0013 C
7 C7    -1.5910     3.6875    -0.1102 C
8 N8    -2.1052     2.4281    -0.2256 N
9 C9     0.6976     2.7515    -0.0063 C
10 C10     2.1399     2.8536     0.0995 C
11 C11     2.6289     1.5823     0.0616 C
12 C12     1.4829     0.6900    -0.0738 C
13 N13     0.3310     1.4199    -0.0955 N
14 C14     0.4781    -1.6107    -0.2073 C
15 C15     0.4651    -3.0269    -0.4445 C
16 C16    -0.8362    -3.4676    -0.4042 C
17 C17    -1.6924    -2.3480    -0.1521 C
18 N18    -0.8467    -1.2454    -0.0618 N
19 C19    -3.8346    -1.1248    -0.0130 C
20 C20    -5.1366    -0.7977     0.4398 C
21 C21    -5.2848     0.5927     0.3884 C
22 C22    -4.0830     1.1437    -0.1034 C
23 N23    -3.2436     0.0734    -0.3559 N
24 H24    -4.8869     4.1302     0.0593 H
25 H25     2.6993     3.7747     0.1934 H
26 H26     3.6625     1.2761     0.1343 H
27 H27     1.3432    -3.6200    -0.6527 H
28 H28    -1.1886    -4.4756    -0.5727 H
29 H29    -5.8527    -1.5068     0.8314 H
30 H30    -6.1317     1.1628     0.7453 H
31 C31     2.9235    -1.3460    -0.2440 C
32 C32     3.8190    -0.9906    -1.2679 C
33 C33     3.3320    -2.3054     0.6976 C
34 C34     5.0786    -1.5713    -1.3442 C
35 H35     3.5118    -0.2620    -2.0111 H
36 C36     4.5913    -2.8915     0.6233 C
37 H37     2.6558    -2.5791     1.5014 H
38 C38     5.4761    -2.5274    -0.4003 C
39 H39     5.7671    -1.3020    -2.1379 H
40 H40     4.8956    -3.6238     1.3621 H
41 C41    -3.8215    -3.6155     0.0499 C
42 C42    -4.5844    -4.1185    -1.0202 C
43 C43    -3.8074    -4.3998     1.2182 C
44 C44    -5.2870    -5.3183    -0.9441 C
45 C45    -4.4973    -5.6056     1.3218 C
46 C46    -5.2385    -6.0594     0.2340 C
47 H47    -5.8564    -5.6650    -1.7987 H
48 H48    -4.4578    -6.1716     2.2454 H
49 C49     0.3442     5.2265     0.1188 C
50 C50     0.7137     5.9938    -0.9982 C
51 C51     0.4930     5.8439     1.3719 C
52 C52     1.2031     7.2933    -0.8867 C
53 C53     0.9798     7.1412     1.5158 C
54 C54     1.3333     7.8620     0.3778 C
55 H55     1.4749     7.8466    -1.7783 H
56 H56     1.0779     7.5755     2.5041 H
57 H57    -1.0895    -0.3525     0.3446 H
58 H58    -2.4920     0.1176    -1.0319 H
59 H59    -1.4410     1.6462    -0.1923 H
60 H60    -5.7811    -6.9969     0.3043 H
61 H61     1.7131     8.8741     0.4769 H
62 Cl62    -2.9189    -3.8443     2.6303 Cl
63 Cl63    -4.6426    -3.2320    -2.5377 Cl
64 Cl64     0.0520     4.9601     2.8259 Cl
65 Cl65     0.5600     5.3039    -2.6078 Cl
66 C66     6.8344    -3.1181    -0.5305 C
67 O67     7.0928    -4.0269     0.4335 O
68 O68     7.6258    -2.8233    -1.4086 O
69 C69     8.4044    -4.6394     0.4113 C
70 H70     8.2691    -5.5819     0.9473 H
71 H71     8.6774    -4.8507    -0.6253 H
72 C72     9.4382    -3.7576     1.0888 C
73 H73    10.4021    -4.2788     1.1222 H
74 H74     9.5721    -2.8225     0.5378 H
75 H75     9.1387    -3.5235     2.1159 H
76 H76    -2.6601     5.6382     0.0919 H
@<TRIPOS>BOND
1 1 7 Ar
2 1 9 Ar
3 1 49 1
4 2 12 Ar
5 2 14 Ar
6 2 31 1
7 3 17 Ar
8 3 19 Ar
9 3 41 1
10 4 5 Ar
11 4 8 Ar
12 4 22 Ar
13 5 6 Ar
14 5 24 1
15 6 7 Ar
16 6 76 1
17 7 8 Ar
18 8 59 1
19 9 10 1
20 9 13 1
21 10 11 2
22 10 25 1
23 11 12 1
24 11 26 1
25 12 13 Ar
26 14 15 Ar
27 14 18 1
28 15 16 2
29 15 27 1
30 16 17 Ar
31 16 28 1
32 17 18 1
33 18 57 1
34 19 20 Ar
35 19 23 Ar
36 20 21 Ar
37 20 29 1
38 21 22 Ar
39 21 30 1
40 22 23 1
41 23 58 1
42 31 32 Ar
43 31 33 Ar
44 32 34 Ar
45 32 35 1
46 33 36 Ar
47 33 37 1
48 34 38 Ar
49 34 39 1
50 36 38 Ar
51 36 40 1
52 38 66 1
53 41 42 Ar
54 41 43 Ar
55 42 44 Ar
56 42 63 1
57 43 45 Ar
58 43 62 1
59 44 46 Ar
60 44 47 1
61 45 46 Ar
62 45 48 1
63 46 60 1
64 49 50 Ar
65 49 51 Ar
66 50 52 Ar
67 50 65 1
68 51 53 Ar
69 51 64 1
70 52 54 Ar
71 52 55 1
72 53 54 Ar
73 53 56 1
74 54 61 1
75 66 67 1
76 66 68 2
77 67 69 1
78 69 70 1
79 69 71 1
80 69 72 1
81 72 73 1
82 72 74 1
83 72 75 1
