# CN_Me2_TD
# Created by GaussView 6.0.16
#

#
#

@<TRIPOS>MOLECULE
Molecule Name
86 93
SMALL
NO_CHARGES


@<TRIPOS>ATOM
1 C1    -3.4055    -1.1869    -0.0674 C
2 C2    -0.0183     2.3722    -0.0456 C
3 C3     3.4344    -1.1547    -0.0847 C
4 C4    -0.7031    -3.5249    -0.3079 C
5 C5    -1.7586    -4.4712    -0.2151 C
6 C6    -2.9607    -3.7653    -0.1664 C
7 C7    -2.6546    -2.3739    -0.2197 C
8 N8    -1.2955    -2.2939    -0.3446 N
9 C9    -2.7921     0.0807    -0.0075 C
10 C10    -3.5020     1.3364     0.1341 C
11 C11    -2.5634     2.3252     0.1376 C
12 C12    -1.2641     1.6787    -0.0072 C
13 N13    -1.4274     0.3279    -0.0783 N
14 C14     1.2490     1.7683    -0.0918 C
15 C15     2.5397     2.3738    -0.2727 C
16 C16     3.4927     1.3835    -0.2762 C
17 C17     2.8452     0.1162    -0.1123 C
18 N18     1.4819     0.4084    -0.0251 N
19 C19     2.6618    -2.3399    -0.1277 C
20 C20     2.9250    -3.6805     0.2464 C
21 C21     1.7307    -4.4070     0.1593 C
22 C22     0.7162    -3.5313    -0.2786 C
23 N23     1.3227    -2.3026    -0.4646 N
24 H24    -1.6353    -5.5454    -0.1923 H
25 H25    -4.5751     1.4412     0.2195 H
26 H26    -2.7331     3.3870     0.2451 H
27 H27     2.7070     3.4311    -0.4156 H
28 H28     4.5572     1.5015    -0.4227 H
29 H29     3.8755    -4.0432     0.6121 H
30 H30     1.5803    -5.4359     0.4572 H
31 C31    -0.0437     3.8596    -0.0662 C
32 C32    -0.7352     4.5521    -1.0759 C
33 C33     0.6337     4.6064     0.9131 C
34 C34    -0.7547     5.9402    -1.1102 C
35 H35    -1.2506     3.9879    -1.8460 H
36 C36     0.6261     5.9955     0.8900 C
37 H37     1.1595     4.0854     1.7064 H
38 C38    -0.0708     6.6718    -0.1247 C
39 H39    -1.2855     6.4640    -1.8983 H
40 H40     1.1464     6.5618     1.6553 H
41 C41     4.9185    -1.2655     0.0337 C
42 C42     5.6853    -1.6631    -1.0832 C
43 C43     5.5527    -0.9875     1.2615 C
44 C44     7.0716    -1.7667    -0.9531 C
45 C45     6.9437    -1.1100     1.3495 C
46 C46     7.7212    -1.4931     0.2552 C
47 H47     7.6598    -2.0660    -1.8181 H
48 H48     7.4297    -0.9033     2.3003 H
49 C49    -4.8896    -1.3031     0.0689 C
50 C50    -5.6952    -1.4027    -1.0820 C
51 C51    -5.4787    -1.3308     1.3493 C
52 C52    -7.0801    -1.5250    -0.9329 C
53 C53    -6.8666    -1.4563     1.4546 C
54 C54    -7.6858    -1.5501     0.3256 C
55 H55    -7.7003    -1.6009    -1.8234 H
56 H56    -7.3183    -1.4822     2.4440 H
57 H57     0.7674    -0.2115     0.3312 H
58 H58     0.9534    -1.5992    -1.0908 H
59 H59    -0.8733    -1.3616    -0.2650 H
60 C60     9.2222    -1.5972     0.3619 C
61 H61     9.5926    -2.5256    -0.0884 H
62 H62     9.7170    -0.7683    -0.1614 H
63 H63     9.5524    -1.5721     1.4052 H
64 C64     5.0308    -1.9675    -2.4086 C
65 H65     4.4532    -2.8986    -2.3684 H
66 H66     4.3355    -1.1744    -2.7052 H
67 H67     5.7813    -2.0744    -3.1978 H
68 C68     4.7615    -0.5729     2.4787 C
69 H69     4.3983     0.4582     2.3929 H
70 H70     3.8818    -1.2089     2.6235 H
71 H71     5.3781    -0.6336     3.3810 H
72 C72    -9.1848    -1.6507     0.4636 C
73 H73    -9.6408    -0.6583     0.5810 H
74 H74    -9.6387    -2.1144    -0.4185 H
75 H75    -9.4689    -2.2410     1.3418 H
76 C76    -5.0810    -1.3761    -2.4604 C
77 H77    -4.4631    -0.4826    -2.6051 H
78 H78    -4.4287    -2.2413    -2.6278 H
79 H79    -5.8549    -1.3834    -3.2341 H
80 C80    -4.6298    -1.2309     2.5930 C
81 H81    -3.8482    -1.9993     2.6068 H
82 H82    -4.1212    -0.2619     2.6549 H
83 H83    -5.2399    -1.3502     3.4937 H
84 C84    -0.0824     8.1019    -0.1553 C
85 N85    -0.0906     9.2651    -0.1799 N
86 H86    -3.9550    -4.1814    -0.0818 H
@<TRIPOS>BOND
1 1 7 Ar
2 1 9 Ar
3 1 49 1
4 2 12 Ar
5 2 14 Ar
6 2 31 1
7 3 17 Ar
8 3 19 Ar
9 3 41 1
10 4 5 Ar
11 4 8 Ar
12 4 22 Ar
13 5 6 Ar
14 5 24 1
15 6 7 Ar
16 6 86 1
17 7 8 Ar
18 8 59 1
19 9 10 1
20 9 13 1
21 10 11 2
22 10 25 1
23 11 12 1
24 11 26 1
25 12 13 Ar
26 14 15 Ar
27 14 18 Ar
28 15 16 2
29 15 27 1
30 16 17 Ar
31 16 28 1
32 17 18 1
33 18 57 1
34 19 20 Ar
35 19 23 Ar
36 20 21 Ar
37 20 29 1
38 21 22 Ar
39 21 30 1
40 22 23 1
41 23 58 1
42 31 32 Ar
43 31 33 Ar
44 32 34 Ar
45 32 35 1
46 33 36 Ar
47 33 37 1
48 34 38 Ar
49 34 39 1
50 36 38 Ar
51 36 40 1
52 38 84 Ar
53 41 42 Ar
54 41 43 Ar
55 42 44 Ar
56 42 64 1
57 43 45 Ar
58 43 68 1
59 44 46 Ar
60 44 47 1
61 45 46 Ar
62 45 48 1
63 46 60 1
64 49 50 Ar
65 49 51 Ar
66 50 52 Ar
67 50 76 1
68 51 53 Ar
69 51 80 1
70 52 54 Ar
71 52 55 1
72 53 54 Ar
73 53 56 1
74 54 72 1
75 60 61 1
76 60 62 1
77 60 63 1
78 64 65 1
79 64 66 1
80 64 67 1
81 68 69 1
82 68 70 1
83 68 71 1
84 72 73 1
85 72 74 1
86 72 75 1
87 76 77 1
88 76 78 1
89 76 79 1
90 80 81 1
91 80 82 1
92 80 83 1
93 84 85 3
