# Co_PPh3_15F
# Created by GaussView 6.0.16
#

#
#

@<TRIPOS>MOLECULE
Molecule Name
99 112
SMALL
NO_CHARGES


@<TRIPOS>ATOM
1 C1     3.2967    -0.9832    -0.9882 C
2 C2    -0.0728     2.5543    -0.7709 C
3 C3    -3.4029    -1.0243    -1.0594 C
4 C4     0.6611    -3.3792    -1.1126 C
5 C5     1.7462    -4.2844    -1.3031 C
6 C6     2.9115    -3.5346    -1.2660 C
7 C7     2.5382    -2.1622    -1.0544 C
8 N8     1.1726    -2.1163    -0.9642 N
9 C9     2.7056     0.2927    -0.9052 C
10 C10     3.4020     1.5506    -0.8165 C
11 C11     2.4672     2.5459    -0.7626 C
12 C12     1.1736     1.9190    -0.8151 C
13 N13     1.3410     0.5509    -0.9044 N
14 C14    -1.3107     1.9011    -0.8803 C
15 C15    -2.6032     2.5179    -0.9861 C
16 C16    -3.5253     1.5115    -1.1089 C
17 C17    -2.8208     0.2591    -1.0542 C
18 N18    -1.4608     0.5303    -0.9310 N
19 C19    -2.6406    -2.1975    -1.0144 C
20 C20    -3.0036    -3.5850    -1.1295 C
21 C21    -1.8319    -4.3199    -1.1701 C
22 C22    -0.7528    -3.3903    -1.0702 C
23 N23    -1.2735    -2.1305    -0.9509 N
24 C24    -4.8819    -1.1382    -1.1339 C
25 C25    -5.5169    -1.7316    -2.2297 C
26 C26    -6.9005    -1.8623    -2.3004 C
27 C27    -7.6913    -1.3849    -1.2600 C
28 C28    -7.0919    -0.7845    -0.1570 C
29 C29    -5.7068    -0.6738    -0.1049 C
30 C30    -0.0989     4.0244    -0.5472 C
31 C31    -0.5362     4.5419     0.6752 C
32 C32    -0.5762     5.9086     0.9273 C
33 C33    -0.1664     6.7978    -0.0625 C
34 C34     0.2794     6.3145    -1.2889 C
35 C35     0.3052     4.9417    -1.5185 C
36 C36     4.7748    -1.0960    -1.0335 C
37 C37     5.5301    -0.4931    -2.0469 C
38 C38     6.9169    -0.5892    -2.0963 C
39 C39     7.5923    -1.3222    -1.1255 C
40 C40     6.8724    -1.9503    -0.1147 C
41 C41     5.4870    -1.8349    -0.0822 C
42 H42    -4.0125    -3.9680    -1.1980 H
43 H43    -1.7376    -5.3923    -1.2776 H
44 H44     1.6616    -5.3512    -1.4631 H
45 H45     3.9215    -3.8983    -1.3968 H
46 H46    -4.5932     1.6179    -1.2389 H
47 H47    -2.7867     3.5831    -1.0049 H
48 H48     2.6451     3.6096    -0.6902 H
49 H49     4.4759     1.6668    -0.7908 H
50 Co50    -0.0566    -0.7182    -0.7012 Co
51 P51     0.1022    -0.8562     1.5075 P
52 C52    -0.0155    -2.5928     2.0738 C
53 C53     0.9998    -3.5290     1.8253 C
54 C54    -1.2021    -3.0248     2.6894 C
55 C55     0.8504    -4.8547     2.2294 C
56 H56     1.8994    -3.2459     1.2964 H
57 C57    -1.3546    -4.3563     3.0710 C
58 H58    -2.0102    -2.3252     2.8678 H
59 C59    -0.3252    -5.2732     2.8517 C
60 H60     1.6507    -5.5619     2.0332 H
61 H61    -2.2800    -4.6741     3.5423 H
62 H62    -0.4434    -6.3096     3.1550 H
63 C63    -1.0985     0.0047     2.6014 C
64 C64    -0.7847     0.0523     3.9740 C
65 C65    -2.2901     0.5755     2.1563 C
66 C66    -1.6500     0.6708     4.8699 C
67 H67     0.1363    -0.3907     4.3383 H
68 C68    -3.1553     1.2003     3.0586 C
69 H69    -2.5567     0.5330     1.1159 H
70 C70    -2.8373     1.2527     4.4128 C
71 H71    -1.3964     0.7023     5.9256 H
72 H72    -4.0759     1.6397     2.6884 H
73 H73    -3.5082     1.7413     5.1137 H
74 C74     1.6620    -0.1109     2.1281 C
75 C75     2.8093    -0.8389     2.4575 C
76 C76     1.6743     1.2882     2.2728 C
77 C77     3.9542    -0.1821     2.9143 C
78 H78     2.8248    -1.9147     2.3780 H
79 C79     2.8169     1.9369     2.7294 C
80 H80     0.7896     1.8693     2.0405 H
81 C81     3.9628     1.2044     3.0492 C
82 H82     4.8366    -0.7652     3.1597 H
83 H83     2.8113     3.0180     2.8332 H
84 H84     4.8539     1.7134     3.4058 H
85 F85    -4.7932    -2.1896    -3.2608 F
86 F86    -7.4752    -2.4330    -3.3663 F
87 F87    -9.0212    -1.5021    -1.3198 F
88 F88    -7.8488    -0.3294     0.8499 F
89 F89    -5.1680    -0.1047     0.9865 F
90 F90    -0.9189     3.7068     1.6570 F
91 F91    -0.9950     6.3739     2.1110 F
92 F92    -0.1972     8.1141     0.1673 F
93 F93     0.6709     7.1718    -2.2397 F
94 F94     0.7334     4.5090    -2.7122 F
95 F95     4.9214     0.1991    -3.0201 F
96 F96     7.6036     0.0044    -3.0803 F
97 F97     8.9243    -1.4246    -1.1656 F
98 F98     7.5155    -2.6564     0.8248 F
99 F99     4.8445    -2.4617     0.9191 F
@<TRIPOS>BOND
1 1 7 Ar
2 1 9 Ar
3 1 36 1
4 2 12 Ar
5 2 14 Ar
6 2 30 1
7 3 17 Ar
8 3 19 Ar
9 3 24 1
10 4 5 Ar
11 4 8 Ar
12 4 22 Ar
13 5 6 Ar
14 5 44 1
15 6 7 Ar
16 6 45 1
17 7 8 Ar
18 8 50 1
19 9 10 Ar
20 9 13 1
21 10 11 2
22 10 49 1
23 11 12 Ar
24 11 48 1
25 12 13 Ar
26 13 50 1
27 14 15 Ar
28 14 18 Ar
29 15 16 2
30 15 47 1
31 16 17 Ar
32 16 46 1
33 17 18 1
34 18 50 1
35 19 20 Ar
36 19 23 Ar
37 20 21 2
38 20 42 1
39 21 22 Ar
40 21 43 1
41 22 23 Ar
42 23 50 1
43 24 25 Ar
44 24 29 Ar
45 25 26 Ar
46 25 85 1
47 26 27 Ar
48 26 86 1
49 27 28 Ar
50 27 87 1
51 28 29 Ar
52 28 88 1
53 29 89 1
54 30 31 Ar
55 30 35 Ar
56 31 32 Ar
57 31 90 1
58 32 33 Ar
59 32 91 1
60 33 34 Ar
61 33 92 1
62 34 35 Ar
63 34 93 1
64 35 94 1
65 36 37 Ar
66 36 41 Ar
67 37 38 Ar
68 37 95 1
69 38 39 Ar
70 38 96 1
71 39 40 Ar
72 39 97 1
73 40 41 Ar
74 40 98 1
75 41 99 1
76 50 51 1
77 51 52 1
78 51 63 1
79 51 74 1
80 52 53 Ar
81 52 54 Ar
82 53 55 Ar
83 53 56 1
84 54 57 Ar
85 54 58 1
86 55 59 Ar
87 55 60 1
88 57 59 Ar
89 57 61 1
90 59 62 1
91 63 64 Ar
92 63 65 Ar
93 64 66 Ar
94 64 67 1
95 65 68 Ar
96 65 69 1
97 66 70 Ar
98 66 71 1
99 68 70 Ar
100 68 72 1
101 70 73 1
102 74 75 Ar
103 74 76 Ar
104 75 77 Ar
105 75 78 1
106 76 79 Ar
107 76 80 1
108 77 81 Ar
109 77 82 1
110 79 81 Ar
111 79 83 1
112 81 84 1
