# Co_Pph3_TD
# Created by GaussView 6.0.16
#

#
#

@<TRIPOS>MOLECULE
Molecule Name
99 112
SMALL
NO_CHARGES


@<TRIPOS>ATOM
1 C1     3.3729    -0.9715    -0.9703 C
2 C2     0.0453     2.5925    -0.6252 C
3 C3    -3.3198    -0.9289    -1.0833 C
4 C4     0.7261    -3.3320    -1.2508 C
5 C5     1.8079    -4.2404    -1.4502 C
6 C6     2.9774    -3.5063    -1.3426 C
7 C7     2.6097    -2.1431    -1.0730 C
8 N8     1.2423    -2.0895    -0.9967 N
9 C9     2.7929     0.3004    -0.8015 C
10 C10     3.5051     1.5401    -0.6320 C
11 C11     2.5810     2.5402    -0.5095 C
12 C12     1.2811     1.9327    -0.6120 C
13 N13     1.4321     0.5696    -0.7706 N
14 C14    -1.1946     1.9629    -0.8053 C
15 C15    -2.4844     2.5966    -0.8648 C
16 C16    -3.4208     1.6027    -0.9565 C
17 C17    -2.7266     0.3423    -0.9615 C
18 N18    -1.3638     0.5941    -0.8786 N
19 C19    -2.5669    -2.1058    -1.2024 C
20 C20    -2.9399    -3.4699    -1.4642 C
21 C21    -1.7731    -4.2129    -1.5494 C
22 C22    -0.6877    -3.3148    -1.3245 C
23 N23    -1.1994    -2.0607    -1.1214 N
24 C24    -4.8008    -1.0245    -1.1196 C
25 C25    -5.4838    -1.4806    -2.2510 C
26 C26    -6.8705    -1.5926    -2.2802 C
27 C27    -7.6137    -1.2345    -1.1597 C
28 C28    -6.9645    -0.7714    -0.0192 C
29 C29    -5.5771    -0.6764    -0.0099 C
30 C30     4.8505    -1.0791    -1.0562 C
31 C31     5.5933    -1.8106    -0.1249 C
32 C32     6.9769    -1.9274    -0.2015 C
33 C33     7.6615    -1.3021    -1.2385 C
34 C34     6.9551    -0.5665    -2.1853 C
35 C35     5.5706    -0.4694    -2.0900 C
36 C36     0.0494     4.0651    -0.4094 C
37 C37     0.3256     4.6008     0.8505 C
38 C38     0.3442     5.9716     1.0831 C
39 C39     0.0724     6.8463     0.0349 C
40 C40    -0.2149     6.3444    -1.2309 C
41 C41    -0.2196     4.9681    -1.4394 C
42 H42     1.7181    -5.2948    -1.6764 H
43 H43     3.9878    -3.8721    -1.4656 H
44 H44     4.5810     1.6409    -0.6092 H
45 H45     2.7690     3.5979    -0.3893 H
46 H46    -2.6598     3.6630    -0.8464 H
47 H47    -4.4917     1.7225    -1.0429 H
48 H48    -3.9502    -3.8328    -1.5949 H
49 H49    -1.6884    -5.2717    -1.7555 H
50 P50    -0.0820    -0.9600     1.5088 P
51 C51    -0.0517    -2.7161     2.0290 C
52 C52     0.9463    -3.2472     2.8582 C
53 C53    -1.1041    -3.5489     1.6142 C
54 C54     0.9081    -4.5896     3.2356 C
55 H55     1.7492    -2.6213     3.2246 H
56 C56    -1.1431    -4.8860     2.0023 C
57 H57    -1.9105    -3.1508     1.0124 H
58 C58    -0.1309    -5.4144     2.8044 C
59 H59     1.6920    -4.9852     3.8748 H
60 H60    -1.9644    -5.5123     1.6668 H
61 H61    -0.1566    -6.4597     3.0989 H
62 C62     1.3347    -0.1542     2.3402 C
63 C63     2.6240    -0.6664     2.1208 C
64 C64     1.1807     0.9746     3.1571 C
65 C65     3.7317    -0.0719     2.7200 C
66 H66     2.7642    -1.5353     1.4934 H
67 C67     2.2962     1.5809     3.7346 C
68 H68     0.1990     1.3875     3.3475 H
69 C69     3.5720     1.0591     3.5217 C
70 H70     4.7162    -0.4952     2.5498 H
71 H71     2.1607     2.4616     4.3552 H
72 H72     4.4375     1.5301     3.9792 H
73 C73    -1.5713    -0.2846     2.3428 C
74 C74    -2.3364    -1.0663     3.2218 C
75 C75    -1.9105     1.0661     2.1695 C
76 C76    -3.4239    -0.5094     3.8954 C
77 H77    -2.0878    -2.1059     3.3913 H
78 C78    -2.9924     1.6190     2.8489 C
79 H79    -1.3189     1.6957     1.5208 H
80 C80    -3.7565     0.8319     3.7115 C
81 H81    -4.0087    -1.1309     4.5672 H
82 H82    -3.2397     2.6649     2.6940 H
83 H83    -4.6065     1.2608     4.2343 H
84 Co84     0.0147    -0.6943    -0.6957 Co
85 F85     4.9286     0.2326    -3.0337 F
86 F86     4.9798    -2.4130     0.9112 F
87 F87     7.6516    -2.6267     0.7200 F
88 F88     7.6102     0.0308    -3.1881 F
89 F89    -7.4939    -2.0311    -3.3812 F
90 F90    -7.6767    -0.4326     1.0638 F
91 F91    -4.8049    -1.8188    -3.3566 F
92 F92    -4.9856    -0.2432     1.1124 F
93 F93     8.9911    -1.4045    -1.3229 F
94 F94    -8.9466    -1.3350    -1.1784 F
95 F95     0.5711     3.7806     1.8866 F
96 F96     0.6103     6.4537     2.3041 F
97 F97     0.0827     8.1661     0.2457 F
98 F98    -0.4771     7.1873    -2.2373 F
99 F99    -0.4977     4.5161    -2.6700 F
@<TRIPOS>BOND
1 1 7 Ar
2 1 9 Ar
3 1 30 1
4 2 12 Ar
5 2 14 Ar
6 2 36 1
7 3 17 Ar
8 3 19 Ar
9 3 24 1
10 4 5 Ar
11 4 8 Ar
12 4 22 Ar
13 5 6 2
14 5 42 1
15 6 7 Ar
16 6 43 1
17 7 8 Ar
18 8 84 1
19 9 10 Ar
20 9 13 1
21 10 11 2
22 10 44 1
23 11 12 Ar
24 11 45 1
25 12 13 Ar
26 13 84 1
27 14 15 Ar
28 14 18 Ar
29 15 16 2
30 15 46 1
31 16 17 Ar
32 16 47 1
33 17 18 1
34 18 84 1
35 19 20 Ar
36 19 23 Ar
37 20 21 2
38 20 48 1
39 21 22 Ar
40 21 49 1
41 22 23 Ar
42 23 84 1
43 24 25 Ar
44 24 29 Ar
45 25 26 Ar
46 25 91 1
47 26 27 Ar
48 26 89 1
49 27 28 Ar
50 27 94 1
51 28 29 Ar
52 28 90 1
53 29 92 1
54 30 31 Ar
55 30 35 Ar
56 31 32 Ar
57 31 86 1
58 32 33 Ar
59 32 87 1
60 33 34 Ar
61 33 93 1
62 34 35 Ar
63 34 88 1
64 35 85 1
65 36 37 Ar
66 36 41 Ar
67 37 38 Ar
68 37 95 1
69 38 39 Ar
70 38 96 1
71 39 40 Ar
72 39 97 1
73 40 41 Ar
74 40 98 1
75 41 99 1
76 50 51 1
77 50 62 1
78 50 73 1
79 50 84 1
80 51 52 Ar
81 51 53 Ar
82 52 54 Ar
83 52 55 1
84 53 56 Ar
85 53 57 1
86 54 58 Ar
87 54 59 1
88 56 58 Ar
89 56 60 1
90 58 61 1
91 62 63 Ar
92 62 64 Ar
93 63 65 Ar
94 63 66 1
95 64 67 Ar
96 64 68 1
97 65 69 Ar
98 65 70 1
99 67 69 Ar
100 67 71 1
101 69 72 1
102 73 74 Ar
103 73 75 Ar
104 74 76 Ar
105 74 77 1
106 75 78 Ar
107 75 79 1
108 76 80 Ar
109 76 81 1
110 78 80 Ar
111 78 82 1
112 80 83 1
