# 4MePh3_NO2_3_TD
# Created by GaussView 6.0.16
#

#
#

@<TRIPOS>MOLECULE
Molecule Name
80 87
SMALL
NO_CHARGES


@<TRIPOS>ATOM
1 C1     3.1035     0.2380    -0.1934 C
2 C2    -1.0668     2.8622     0.0544 C
3 C3    -3.5925    -1.3373    -0.1487 C
4 C4     0.9572    -2.7082    -0.4358 C
5 C5     2.1254    -3.3308     0.0467 C
6 C6     3.1200    -2.3358     0.2181 C
7 C7     2.5958    -1.0993    -0.1834 C
8 N8     1.3069    -1.3838    -0.5965 N
9 C9     2.2323     1.3301    -0.1782 C
10 C10     2.5409     2.7160    -0.4160 C
11 C11     1.3854     3.4449    -0.3405 C
12 C12     0.2906     2.5523    -0.0596 C
13 N13     0.8487     1.2867     0.0054 N
14 C14    -2.1310     1.9083     0.1056 C
15 C15    -3.5396     2.2625     0.2343 C
16 C16    -4.2475     1.1021     0.1645 C
17 C17    -3.2820     0.0264     0.0160 C
18 N18    -1.9992     0.5616    -0.0035 N
19 C19    -2.5820    -2.3164    -0.3763 C
20 C20    -1.2542    -4.1650    -0.4872 C
21 C21    -0.4330    -3.0111    -0.4971 C
22 N22    -1.2762    -1.9300    -0.4733 N
23 C23    -1.4136     4.3125     0.0826 C
24 C24    -0.9147     5.1491     1.0904 C
25 C25    -2.0472     7.0781     0.1339 C
26 H26     0.7808    -0.7410    -1.1752 H
27 H27     3.5262     3.0814    -0.6645 H
28 H28     1.2751     4.5051    -0.5126 H
29 H29     0.3391     0.5249     0.4312 H
30 H30    -3.9298     3.2625     0.3540 H
31 H31    -5.3213     0.9864     0.1892 H
32 H32    -0.8957    -5.1804    -0.5283 H
33 H33    -1.0734    -0.9353    -0.3125 H
34 C34    -2.2340     4.8845    -0.9038 C
35 H35    -0.2868     4.7265     1.8692 H
36 H36    -2.6195     4.2583    -1.7028 H
37 C37    -4.9938    -1.8081    -0.0606 C
38 C38    -5.5413    -2.6157    -1.0733 C
39 C39    -5.8047    -1.4867     1.0384 C
40 C40    -6.8532    -3.0687    -0.9916 C
41 H41    -4.9365    -2.8666    -1.9393 H
42 C42    -7.1177    -1.9469     1.1145 C
43 H43    -5.3935    -0.8900     1.8464 H
44 C44    -7.6668    -2.7438     0.1037 C
45 H45    -7.2577    -3.6811    -1.7941 H
46 H46    -7.7229    -1.6907     1.9804 H
47 C47     4.5655     0.4455    -0.2477 C
48 C48     5.3491    -0.2801    -1.1621 C
49 C49     5.2138     1.3494     0.6080 C
50 C50     6.7269    -0.1059    -1.2140 C
51 H51     4.8702    -0.9773    -1.8434 H
52 C52     6.5934     1.5233     0.5448 C
53 H53     4.6341     1.8944     1.3461 H
54 C54     7.3762     0.7975    -0.3614 C
55 H55     7.3105    -0.6785    -1.9306 H
56 H56     7.0747     2.2215     1.2251 H
57 C57    -2.5444     6.2403    -0.8753 C
58 H58    -3.1775     6.6597    -1.6537 H
59 C59    -1.2272     6.5081     1.1131 C
60 H60    -0.8327     7.1334     1.9102 H
61 C61    -2.3844     8.5477     0.1500 C
62 H62    -1.9715     9.0428     1.0345 H
63 H63    -1.9852     9.0581    -0.7356 H
64 H64    -3.4692     8.7096     0.1499 H
65 C65     8.8744     0.9550    -0.4022 C
66 H66     9.3727     0.1042     0.0810 H
67 H67     9.2449     1.0016    -1.4325 H
68 H68     9.1966     1.8632     0.1170 H
69 C69    -9.0850    -3.2478     0.1838 C
70 H70    -9.6611    -2.9601    -0.7043 H
71 H71    -9.1158    -4.3431     0.2433 H
72 H72    -9.6017    -2.8509     1.0629 H
73 N73     4.4538    -2.5454     0.7430 N
74 O74     5.1652    -3.3572     0.1568 O
75 O75     4.7831    -1.8797     1.7216 O
76 N76     2.2018    -4.6760     0.5123 N
77 O77     1.3584    -5.4765     0.0887 O
78 O78     3.0989    -4.9608     1.3098 O
79 C79    -2.5794    -3.7376    -0.4090 C
80 H80    -3.4556    -4.3667    -0.3537 H
@<TRIPOS>BOND
1 1 7 Ar
2 1 9 Ar
3 1 47 1
4 2 12 Ar
5 2 14 Ar
6 2 23 1
7 3 17 Ar
8 3 19 Ar
9 3 37 1
10 4 5 Ar
11 4 8 Ar
12 4 21 Ar
13 5 6 Ar
14 5 76 1
15 6 7 Ar
16 6 73 1
17 7 8 1
18 8 26 1
19 9 10 Ar
20 9 13 1
21 10 11 2
22 10 27 1
23 11 12 Ar
24 11 28 1
25 12 13 1
26 13 29 1
27 14 15 1
28 14 18 Ar
29 15 16 2
30 15 30 1
31 16 17 1
32 16 31 1
33 17 18 1
34 19 22 Ar
35 19 79 Ar
36 20 21 Ar
37 20 32 1
38 20 79 Ar
39 21 22 Ar
40 22 33 1
41 23 24 Ar
42 23 34 Ar
43 24 35 1
44 24 59 Ar
45 25 57 Ar
46 25 59 Ar
47 25 61 1
48 34 36 1
49 34 57 Ar
50 37 38 Ar
51 37 39 Ar
52 38 40 Ar
53 38 41 1
54 39 42 Ar
55 39 43 1
56 40 44 Ar
57 40 45 1
58 42 44 Ar
59 42 46 1
60 44 69 1
61 47 48 Ar
62 47 49 Ar
63 48 50 Ar
64 48 51 1
65 49 52 Ar
66 49 53 1
67 50 54 Ar
68 50 55 1
69 52 54 Ar
70 52 56 1
71 54 65 1
72 57 58 1
73 59 60 1
74 61 62 1
75 61 63 1
76 61 64 1
77 65 66 1
78 65 67 1
79 65 68 1
80 69 70 1
81 69 71 1
82 69 72 1
83 73 74 Ar
84 73 75 Ar
85 76 77 Ar
86 76 78 Ar
87 79 80 1
