# Et2_Me6_TD
# Created by GaussView 6.0.16
#

#
#

@<TRIPOS>MOLECULE
Molecule Name
70 74
SMALL
NO_CHARGES


@<TRIPOS>ATOM
1 C1    -0.1073    -3.4055    -0.2769 C
2 C2     2.9487     0.3966    -0.1609 C
3 C3    -0.9469     3.3162    -0.0428 C
4 C4    -2.8242    -1.0353    -0.1209 C
5 C5    -3.4318    -2.1039     0.5592 C
6 C6    -2.5477    -3.2068     0.5052 C
7 C7    -1.3875    -2.8048    -0.1893 C
8 N8    -1.5976    -1.4921    -0.6298 N
9 C9     1.0882    -2.6985    -0.3196 C
10 C10     2.4420    -3.2062    -0.4121 C
11 C11     3.3113    -2.1338    -0.3634 C
12 C12     2.5240    -0.9245    -0.2394 C
13 N13     1.2109    -1.3228    -0.2308 N
14 C14     2.1363     1.5508    -0.0933 C
15 C15     2.6526     2.9224    -0.0419 C
16 C16     1.5567     3.7465    -0.0085 C
17 C17     0.3808     2.8790    -0.0446 C
18 N18     0.7791     1.5521    -0.0896 N
19 C19    -2.0599     2.4506    -0.0880 C
20 C20    -3.4785     2.6142    -0.0967 C
21 C21    -4.0579     1.3315    -0.1121 C
22 C22    -2.9954     0.3828    -0.1134 C
23 N23    -1.8373     1.1053    -0.1111 N
24 H24     0.4653    -0.6754    -0.0266 H
25 H25    -0.8786     0.7676    -0.0230 H
26 H26    -1.1305     4.3845     0.0061 H
27 H27    -0.0382    -4.4851    -0.1929 H
28 H28     4.0218     0.5522    -0.1688 H
29 C29    -5.5236     1.0297    -0.1911 C
30 H30    -5.7007     0.0058    -0.5331 H
31 H31    -6.0278     1.1472     0.7778 H
32 H32    -6.0275     1.7061    -0.8924 H
33 C33    -4.6996    -2.0453     1.3542 C
34 H34    -4.9266    -1.0206     1.6611 H
35 H35    -5.5607    -2.4177     0.7830 H
36 H36    -4.6283    -2.6585     2.2599 H
37 C37    -2.7316    -4.5053     1.2278 C
38 H38    -2.7575    -4.3671     2.3175 H
39 H39    -3.6740    -4.9901     0.9447 H
40 H40    -1.9195    -5.2047     1.0078 H
41 C41     2.7781    -4.6596    -0.5321 C
42 H42     2.5658    -5.2018     0.3993 H
43 H43     2.1952    -5.1424    -1.3253 H
44 H44     3.8376    -4.8076    -0.7606 H
45 C45     1.5175     5.2415     0.0590 C
46 H46     0.8903     5.6671    -0.7345 H
47 H47     1.1061     5.5935     1.0145 H
48 H48     2.5173     5.6749    -0.0440 H
49 C49    -4.2164     3.9166    -0.1047 C
50 H50    -4.7624     4.0823     0.8338 H
51 H51    -3.5354     4.7620    -0.2437 H
52 H52    -4.9587     3.9545    -0.9126 H
53 C53    -1.1340    -1.0631    -1.9648 C
54 H54    -0.5133    -0.1662    -1.9265 H
55 H55    -0.5484    -1.8719    -2.4012 H
56 H56    -2.0010    -0.8672    -2.6013 H
57 C57     4.1046     3.2976     0.0143 C
58 H58     4.6731     2.6976    -0.7088 H
59 H59     4.2285     4.3414    -0.2971 H
60 C60     4.8109    -2.1552    -0.3797 C
61 H61     5.1814    -1.3153    -0.9806 H
62 H62     5.1633    -3.0665    -0.8758 H
63 C63     5.4206    -2.0781     1.0302 C
64 H64     6.5160    -2.0725     0.9835 H
65 H65     5.0958    -1.1694     1.5486 H
66 H66     5.1087    -2.9359     1.6367 H
67 C67     4.7214     3.1156     1.4119 C
68 H68     4.6315     2.0777     1.7513 H
69 H69     5.7852     3.3829     1.4099 H
70 H70     4.2117     3.7482     2.1473 H
@<TRIPOS>BOND
1 1 7 Ar
2 1 9 Ar
3 1 27 1
4 2 12 Ar
5 2 14 Ar
6 2 28 1
7 3 17 Ar
8 3 19 Ar
9 3 26 1
10 4 5 Ar
11 4 8 1
12 4 22 Ar
13 5 6 Ar
14 5 33 1
15 6 7 Ar
16 6 37 1
17 7 8 1
18 8 53 1
19 9 10 1
20 9 13 1
21 10 11 2
22 10 41 1
23 11 12 1
24 11 60 1
25 12 13 Ar
26 13 24 1
27 14 15 1
28 14 18 Ar
29 15 16 2
30 15 57 1
31 16 17 1
32 16 45 1
33 17 18 1
34 19 20 Ar
35 19 23 Ar
36 20 21 Ar
37 20 49 1
38 21 22 Ar
39 21 29 1
40 22 23 Ar
41 23 25 1
42 29 30 1
43 29 31 1
44 29 32 1
45 33 34 1
46 33 35 1
47 33 36 1
48 37 38 1
49 37 39 1
50 37 40 1
51 41 42 1
52 41 43 1
53 41 44 1
54 45 46 1
55 45 47 1
56 45 48 1
57 49 50 1
58 49 51 1
59 49 52 1
60 53 54 1
61 53 55 1
62 53 56 1
63 57 58 1
64 57 59 1
65 57 67 1
66 60 61 1
67 60 62 1
68 60 63 1
69 63 64 1
70 63 65 1
71 63 66 1
72 67 68 1
73 67 69 1
74 67 70 1
