# Et2_Me7_TD
# Created by GaussView 6.0.16
#

#
#

@<TRIPOS>MOLECULE
Molecule Name
70 74
SMALL
NO_CHARGES


@<TRIPOS>ATOM
1 C1    -0.5197    -3.4184     0.0445 C
2 C2     2.8854     0.0820    -0.0471 C
3 C3    -0.6018     3.4489    -0.1295 C
4 C4    -2.9096    -0.7135    -0.0559 C
5 C5    -3.8204    -1.7690     0.2291 C
6 C6    -3.0822    -2.9675     0.2907 C
7 C7    -1.7134    -2.6560     0.0638 C
8 N8    -1.6730    -1.3031    -0.1602 N
9 C9     0.7527    -2.8574     0.0244 C
10 C10     1.9701    -3.4158    -0.4837 C
11 C11     2.9187    -2.4044    -0.5456 C
12 C12     2.3220    -1.1908    -0.0572 C
13 N13     1.0127    -1.4992     0.3507 N
14 C14     2.2411     1.3407     0.0136 C
15 C15     2.9329     2.6352    -0.0544 C
16 C16     1.9539     3.5978    -0.0861 C
17 C17     0.6772     2.8880    -0.0445 C
18 N18     0.9019     1.5297     0.0386 N
19 C19    -1.7844     2.6804    -0.1498 C
20 C20    -3.1717     2.9758    -0.3175 C
21 C21    -3.8747     1.7592    -0.2991 C
22 C22    -2.9201     0.7131    -0.1086 C
23 N23    -1.6981     1.3224    -0.0217 N
24 H24    -0.7547     0.9293     0.1022 H
25 H25    -0.6893     4.5277    -0.2077 H
26 H26    -0.6017    -4.4963    -0.0512 H
27 H27     3.9541     0.1140    -0.2356 H
28 C28    -5.3513     1.6076    -0.5043 C
29 H29    -5.5915     0.6812    -1.0333 H
30 H30    -5.9083     1.6015     0.4423 H
31 H31    -5.7458     2.4391    -1.0984 H
32 C32    -5.2896    -1.6533     0.4988 C
33 H33    -5.5314    -0.7268     1.0265 H
34 H34    -5.8854    -1.6727    -0.4235 H
35 H35    -5.6346    -2.4874     1.1191 H
36 C36    -3.6264    -4.3285     0.5977 C
37 H37    -4.1381    -4.3552     1.5686 H
38 H38    -4.3551    -4.6543    -0.1555 H
39 H39    -2.8286    -5.0770     0.6313 H
40 C40     2.0934    -4.8201    -0.9874 C
41 H41     1.7845    -5.5448    -0.2237 H
42 H42     1.4566    -4.9885    -1.8655 H
43 H43     3.1221    -5.0587    -1.2702 H
44 C44     2.1032     5.0850    -0.1662 C
45 H45     1.6301     5.4899    -1.0707 H
46 H46     1.6332     5.5858     0.6903 H
47 H47     3.1553     5.3854    -0.1831 H
48 C48    -3.7549     4.3430    -0.4977 C
49 H49    -4.2478     4.7033     0.4155 H
50 H50    -2.9829     5.0725    -0.7628 H
51 H51    -4.5097     4.3588    -1.2933 H
52 C52     4.4222     2.8167    -0.0430 C
53 H53     4.8875     2.1245    -0.7582 H
54 H54     4.6765     3.8245    -0.3910 H
55 C55     4.3212    -2.5013    -1.0717 C
56 H56     4.5556    -1.6004    -1.6515 H
57 H57     4.4030    -3.3434    -1.7677 H
58 C58     5.3597    -2.6675     0.0505 C
59 H59     6.3752    -2.7151    -0.3596 H
60 H60     5.3159    -1.8300     0.7558 H
61 H61     5.1782    -3.5871     0.6182 H
62 C62     5.0419     2.5907     1.3465 C
63 H63     4.8217     1.5829     1.7151 H
64 H64     6.1314     2.7140     1.3178 H
65 H65     4.6360     3.3042     2.0725 H
66 H66    -0.8198    -0.8494    -0.4609 H
67 C67     0.6164    -1.0377     1.6965 C
68 H68     0.5956     0.0511     1.7157 H
69 H69    -0.3738    -1.4196     1.9368 H
70 H70     1.3301    -1.4083     2.4422 H
@<TRIPOS>BOND
1 1 7 Ar
2 1 9 Ar
3 1 26 1
4 2 12 Ar
5 2 14 Ar
6 2 27 1
7 3 17 Ar
8 3 19 Ar
9 3 25 1
10 4 5 Ar
11 4 8 Ar
12 4 22 Ar
13 5 6 Ar
14 5 32 1
15 6 7 Ar
16 6 36 1
17 7 8 Ar
18 8 66 1
19 9 10 Ar
20 9 13 1
21 10 11 Ar
22 10 40 1
23 11 12 Ar
24 11 55 1
25 12 13 1
26 13 67 1
27 14 15 1
28 14 18 Ar
29 15 16 2
30 15 52 1
31 16 17 1
32 16 44 1
33 17 18 Ar
34 19 20 Ar
35 19 23 Ar
36 20 21 Ar
37 20 48 1
38 21 22 Ar
39 21 28 1
40 22 23 Ar
41 23 24 1
42 28 29 1
43 28 30 1
44 28 31 1
45 32 33 1
46 32 34 1
47 32 35 1
48 36 37 1
49 36 38 1
50 36 39 1
51 40 41 1
52 40 42 1
53 40 43 1
54 44 45 1
55 44 46 1
56 44 47 1
57 48 49 1
58 48 50 1
59 48 51 1
60 52 53 1
61 52 54 1
62 52 62 1
63 55 56 1
64 55 57 1
65 55 58 1
66 58 59 1
67 58 60 1
68 58 61 1
69 62 63 1
70 62 64 1
71 62 65 1
72 67 68 1
73 67 69 1
74 67 70 1
