# F0C_OPT
# Created by GaussView 6.0.16
#

#
#

@<TRIPOS>MOLECULE
Molecule Name
67 74
SMALL
NO_CHARGES


@<TRIPOS>ATOM
1 C1    -3.4571    -1.0063    -0.0749 C
2 C2     0.0210     2.5062     0.0180 C
3 C3     3.4252    -1.0373    -0.0134 C
4 C4    -0.7180    -3.3735    -0.1851 C
5 C5    -1.7322    -4.2498     0.2485 C
6 C6    -2.9297    -3.5281     0.3142 C
7 C7    -2.6728    -2.1914    -0.0818 C
8 N8    -1.3285    -2.1515    -0.3944 N
9 C9    -2.8630     0.2700    -0.1105 C
10 C10    -3.4762     1.5359    -0.3842 C
11 C11    -2.5095     2.5131    -0.3625 C
12 C12    -1.2440     1.9024    -0.0753 C
13 N13    -1.5041     0.5494     0.0439 N
14 C14     1.2660     1.8186     0.0883 C
15 C15     2.5513     2.4707     0.2989 C
16 C16     3.5013     1.4938     0.2800 C
17 C17     2.8114     0.2361     0.0566 C
18 N18     1.4483     0.4725    -0.0316 N
19 C19     2.6604    -2.2257    -0.1285 C
20 C20     2.9601    -3.6200    -0.1701 C
21 C21     1.7539    -4.3188    -0.2004 C
22 C22     0.7016    -3.3666    -0.1989 C
23 N23     1.2979    -2.1378    -0.1741 N
24 C24     4.9022    -1.1619     0.0577 C
25 C25     5.5043    -1.9995     1.0119 C
26 C26     6.8907    -2.1313     1.0717 C
27 C27     7.7029    -1.4291     0.1795 C
28 C28     7.1174    -0.5940    -0.7737 C
29 C29     5.7311    -0.4627    -0.8355 C
30 C30     0.0412     3.9970     0.0091 C
31 C31     0.7541     4.7029    -0.9738 C
32 C32     0.7669     6.0968    -0.9837 C
33 C33     0.0633     6.8129    -0.0132 C
34 C34    -0.6528     6.1242     0.9673 C
35 C35    -0.6625     4.7299     0.9784 C
36 C36    -4.9292    -1.1300    -0.0011 C
37 C37    -5.6848    -0.3284     0.8738 C
38 C38    -7.0702    -0.4565     0.9437 C
39 C39    -7.7317    -1.3950     0.1494 C
40 C40    -6.9941    -2.2040    -0.7174 C
41 C41    -5.6093    -2.0728    -0.7934 C
42 H42    -1.5796    -5.2737     0.5620 H
43 H43    -4.5219     1.6649    -0.6226 H
44 H44    -2.6462     3.5635    -0.5722 H
45 H45     2.7014     3.5281     0.4630 H
46 H46     4.5661     1.6116     0.4235 H
47 H47     3.9524    -4.0474    -0.1753 H
48 H48    -0.8260    -0.0712     0.4624 H
49 H49     0.8828    -1.1999    -0.0992 H
50 H50    -0.9392    -1.4409    -1.0000 H
51 H51     1.6268    -5.3921    -0.2409 H
52 H52    -3.8791    -3.8931     0.6791 H
53 H53     8.7834    -1.5318     0.2265 H
54 H54     7.7404    -0.0486    -1.4773 H
55 H55     7.3372    -2.7776     1.8226 H
56 H56     4.8770    -2.5308     1.7208 H
57 H57     5.2783     0.1736    -1.5893 H
58 H58    -5.0440    -2.6909    -1.4836 H
59 H59    -5.1744     0.3823     1.5157 H
60 H60    -7.6327     0.1697     1.6308 H
61 H61    -8.8117    -1.4968     0.2070 H
62 H62    -7.4992    -2.9337    -1.3442 H
63 H63     0.0729     7.8993    -0.0213 H
64 H64     1.3210     6.6242    -1.7554 H
65 H65    -1.1985     6.6725     1.7305 H
66 H66     1.2910     4.1480    -1.7370 H
67 H67    -1.2087     4.1957     1.7501 H
@<TRIPOS>BOND
1 1 7 Ar
2 1 9 Ar
3 1 36 1
4 2 12 Ar
5 2 14 Ar
6 2 30 1
7 3 17 Ar
8 3 19 Ar
9 3 24 1
10 4 5 Ar
11 4 8 1
12 4 22 Ar
13 5 6 Ar
14 5 42 1
15 6 7 Ar
16 6 52 1
17 7 8 Ar
18 8 50 1
19 9 10 Ar
20 9 13 1
21 10 11 2
22 10 43 1
23 11 12 Ar
24 11 44 1
25 12 13 1
26 13 48 1
27 14 15 1
28 14 18 Ar
29 15 16 2
30 15 45 1
31 16 17 1
32 16 46 1
33 17 18 1
34 19 20 Ar
35 19 23 Ar
36 20 21 Ar
37 20 47 1
38 21 22 Ar
39 21 51 1
40 22 23 Ar
41 23 49 1
42 24 25 Ar
43 24 29 Ar
44 25 26 Ar
45 25 56 1
46 26 27 Ar
47 26 55 1
48 27 28 Ar
49 27 53 1
50 28 29 Ar
51 28 54 1
52 29 57 1
53 30 31 Ar
54 30 35 Ar
55 31 32 Ar
56 31 66 1
57 32 33 Ar
58 32 64 1
59 33 34 Ar
60 33 63 1
61 34 35 Ar
62 34 65 1
63 35 67 1
64 36 37 Ar
65 36 41 Ar
66 37 38 Ar
67 37 59 1
68 38 39 Ar
69 38 60 1
70 39 40 Ar
71 39 61 1
72 40 41 Ar
73 40 62 1
74 41 58 1
