# N6_Cl2
# Created by GaussView 6.0.16
#

#
#

@<TRIPOS>MOLECULE
Molecule Name
65 72
SMALL
NO_CHARGES


@<TRIPOS>ATOM
1 C1     3.5099    -1.4283    -0.1903 C
2 C2    -0.0819     1.9262     0.0758 C
3 C3    -3.3459    -1.7335    -0.0742 C
4 C4     0.8706    -3.8899    -0.4255 C
5 C5     1.9244    -4.7549    -0.0691 C
6 C6     3.0967    -3.9971     0.0259 C
7 C7     2.7806    -2.6428    -0.2517 C
8 N8     1.4295    -2.6298    -0.5460 N
9 C9     2.8786    -0.1743    -0.1674 C
10 C10     3.4642     1.1351    -0.2069 C
11 C11     2.4613     2.0725    -0.1375 C
12 C12     1.2052     1.3901    -0.0379 C
13 N13     1.5002     0.0411    -0.0874 N
14 C14    -1.3010     1.1991     0.0904 C
15 C15    -2.6168     1.8146     0.1787 C
16 C16    -3.5297     0.8038     0.1390 C
17 C17    -2.7825    -0.4387     0.0374 C
18 N18    -1.4276    -0.1565     0.0084 N
19 C19    -2.5460    -2.8830    -0.2933 C
20 C20    -2.7832    -4.2911    -0.2662 C
21 C21    -1.5528    -4.9365    -0.3582 C
22 C22    -0.5454    -3.9390    -0.4437 C
23 N23    -1.1952    -2.7355    -0.4418 N
24 C24    -4.8073    -1.9261     0.0642 C
25 C25    -5.5353    -2.6682    -0.8786 C
26 C26    -6.9061    -2.8387    -0.7010 C
27 C27    -6.8971    -1.6272     1.2319 C
28 C28    -5.5252    -1.4018     1.1499 C
29 C29     4.9928    -1.4925    -0.1052 C
30 C30     5.6329    -2.1148     0.9751 C
31 C31     7.0252    -2.1615     1.0049 C
32 C32     7.1950    -1.0383    -0.9736 C
33 C33     5.8105    -0.9441    -1.1021 C
34 H34     4.5230     1.3290    -0.2966 H
35 H35     2.5749     3.1467    -0.1634 H
36 H36    -1.3793    -6.0039    -0.3637 H
37 H37    -3.7501    -4.7621    -0.1625 H
38 H38    -2.8143     2.8748     0.2528 H
39 H39    -4.6064     0.8944     0.1531 H
40 H40     4.0682    -4.3611     0.3272 H
41 H41     7.8421    -0.6174    -1.7410 H
42 H42     5.3731    -0.4633    -1.9708 H
43 H43     5.0539    -2.5412     1.7876 H
44 H44    -5.0402    -3.0878    -1.7480 H
45 H45    -7.4639    -1.2264     2.0703 H
46 H46    -5.0147    -0.8432     1.9269 H
47 H47     1.8193    -5.8059     0.1635 H
48 H48     1.0354    -1.9244    -1.1551 H
49 H49     0.8321    -0.6248     0.2773 H
50 H50    -0.8139    -1.7906    -0.3069 H
51 H51    -7.4818    -3.4066    -1.4298 H
52 H52     7.5351    -2.6398     1.8391 H
53 N53     7.8101    -1.6357     0.0554 N
54 N54    -7.5947    -2.3319     0.3306 N
55 C55    -0.1648     3.4165     0.1590 C
56 C56    -0.5314     4.1536    -0.9760 C
57 C57     0.1146     4.1271     1.3359 C
58 C58    -0.6096     5.5414    -0.9215 C
59 H59    -0.7534     3.6271    -1.8971 H
60 C60     0.0389     5.5186     1.3869 C
61 C61    -0.3251     6.2371     0.2512 C
62 H62     0.2591     6.0390     2.3124 H
63 H63    -0.3877     7.3190     0.2819 H
64 Cl64     0.5564     3.2672     2.8039 Cl
65 Cl65    -1.0712     6.4342    -2.3656 Cl
@<TRIPOS>BOND
1 1 7 Ar
2 1 9 Ar
3 1 29 1
4 2 12 Ar
5 2 14 Ar
6 2 55 1
7 3 17 Ar
8 3 19 Ar
9 3 24 1
10 4 5 Ar
11 4 8 1
12 4 22 Ar
13 5 6 Ar
14 5 47 1
15 6 7 Ar
16 6 40 1
17 7 8 1
18 8 48 1
19 9 10 Ar
20 9 13 1
21 10 11 2
22 10 34 1
23 11 12 Ar
24 11 35 1
25 12 13 Ar
26 13 49 1
27 14 15 1
28 14 18 Ar
29 15 16 2
30 15 38 1
31 16 17 1
32 16 39 1
33 17 18 1
34 19 20 Ar
35 19 23 Ar
36 20 21 Ar
37 20 37 1
38 21 22 Ar
39 21 36 1
40 22 23 Ar
41 23 50 1
42 24 25 Ar
43 24 28 Ar
44 25 26 Ar
45 25 44 1
46 26 51 1
47 26 54 Ar
48 27 28 Ar
49 27 45 1
50 27 54 Ar
51 28 46 1
52 29 30 Ar
53 29 33 Ar
54 30 31 Ar
55 30 43 1
56 31 52 1
57 31 53 Ar
58 32 33 Ar
59 32 41 1
60 32 53 Ar
61 33 42 1
62 55 56 Ar
63 55 57 Ar
64 56 58 Ar
65 56 59 1
66 57 60 Ar
67 57 64 1
68 58 61 Ar
69 58 65 1
70 60 61 Ar
71 60 62 1
72 61 63 1
