# F5_Ga_COO2_OPT
# Created by GaussView 6.0.16
#

#
#

@<TRIPOS>MOLECULE
Molecule Name
77 87
SMALL
NO_CHARGES


@<TRIPOS>ATOM
1 C1     3.3364    -1.4144     0.1153 C
2 C2     0.0484     2.2692     0.0652 C
3 C3    -3.4128    -1.2502    -0.0378 C
4 C4     0.6171    -3.7616     0.0984 C
5 C5     1.6805    -4.7042     0.0399 C
6 C6     2.8734    -3.9860     0.0492 C
7 C7     2.5461    -2.5908     0.1203 C
8 N8     1.1791    -2.5106     0.1500 N
9 C9     2.7917    -0.1088     0.1080 C
10 C10     3.5099     1.1341     0.1794 C
11 C11     2.6033     2.1652     0.1612 C
12 N12     1.4306     0.2171     0.0625 N
13 C13    -1.2235     1.6582     0.0328 C
14 C14    -2.5112     2.2903     0.0165 C
15 C15    -3.4660     1.3040    -0.0046 C
16 C16    -2.8060     0.0273    -0.0165 C
17 C17    -2.6825    -2.4638     0.0075 C
18 C18    -3.0736    -3.8419    -0.0739 C
19 C19    -0.8132    -3.7267     0.0666 C
20 N20    -1.3155    -2.4498     0.0940 N
21 C21    -6.9680    -0.8178    -1.2890 C
22 C22    -5.5860    -0.7138    -1.1891 C
23 C23    -4.8929    -1.3369    -0.1362 C
24 C24    -5.6285    -2.0717     0.8093 C
25 C25    -7.0117    -2.1805     0.7100 C
26 C26     0.6347     4.4862    -0.9793 C
27 C27     0.0885     3.7572     0.0818 C
28 C28    -0.4118     4.4940     1.1600 C
29 C29    -0.3818     5.8846     1.1835 C
30 C30     6.8224    -2.5345     1.0852 C
31 C31     5.4440    -2.3593     1.0938 C
32 C32     4.8130    -1.5749     0.1120 C
33 C33     5.6078    -0.9732    -0.8788 C
34 C34     6.9882    -1.1429    -0.8873 C
35 C35     0.6881     5.8762    -0.9725 C
36 C36     1.2888     1.5956     0.0873 C
37 N37    -1.4303     0.2875     0.0162 N
38 Ga38    -0.0318    -1.0132     0.0883 Ga
39 C39     7.6064    -1.9276     0.0955 C
40 C40    -1.9176    -4.6173    -0.0321 C
41 C41    -7.6926    -1.5527    -0.3416 C
42 H42    -2.6847     3.3568     0.0204 H
43 H43    -4.5369     1.4450    -0.0010 H
44 H44     3.8715    -4.3976    -0.0020 H
45 H45     1.5758    -5.7799    -0.0125 H
46 H46    -1.8630    -5.6970    -0.0769 H
47 H47    -4.0876    -4.2048    -0.1650 H
48 H48     2.8237     3.2217     0.2137 H
49 H49     4.5839     1.2219     0.2530 H
50 C50     0.1738     6.5784     0.1130 C
51 F51     0.2128     7.9141     0.1272 F
52 F52     1.2180     6.5414    -2.0067 F
53 F53    -0.8712     6.5575     2.2325 F
54 F54    -0.9428     3.8619     2.2170 F
55 F55     1.1298     3.8469    -2.0494 F
56 H56    -7.5033    -0.3434    -2.1043 H
57 H57    -5.0285    -0.1629    -1.9396 H
58 H58    -7.5674    -2.7441     1.4504 H
59 H59    -5.1075    -2.5470     1.6339 H
60 H60     4.8440    -2.8185     1.8726 H
61 H61     7.3106    -3.1349     1.8452 H
62 H62     7.5882    -0.6789    -1.6615 H
63 H63     5.1319    -0.3850    -1.6565 H
64 C64     9.0759    -2.1523     0.1292 C
65 O65     9.6463    -2.8542     0.9443 O
66 O66     9.7208    -1.4893    -0.8529 O
67 C67    11.1441    -1.6759    -0.8922 C
68 H68    11.3893    -2.7273    -1.0666 H
69 H69    11.4971    -1.0625    -1.7221 H
70 H70    11.6034    -1.3500     0.0449 H
71 C71    -9.1687    -1.6367    -0.4995 C
72 O72    -9.7450    -2.4042     0.4486 O
73 O73    -9.7994    -1.0828    -1.3815 O
74 C74   -11.1723    -2.5298     0.3569 C
75 H75   -11.4605    -2.9788    -0.5975 H
76 H76   -11.4621    -3.1788     1.1843 H
77 H77   -11.6532    -1.5526     0.4543 H
@<TRIPOS>BOND
1 1 7 Ar
2 1 9 Ar
3 1 32 1
4 2 13 Ar
5 2 27 1
6 2 36 Ar
7 3 16 Ar
8 3 17 Ar
9 3 23 1
10 4 5 Ar
11 4 8 Ar
12 4 19 Ar
13 5 6 Ar
14 5 45 1
15 6 7 Ar
16 6 44 1
17 7 8 Ar
18 8 38 1
19 9 10 Ar
20 9 12 1
21 10 11 2
22 10 49 1
23 11 36 Ar
24 11 48 1
25 12 36 1
26 12 38 1
27 13 14 Ar
28 13 37 1
29 14 15 2
30 14 42 1
31 15 16 Ar
32 15 43 1
33 16 37 1
34 17 18 Ar
35 17 20 Ar
36 18 40 Ar
37 18 47 1
38 19 20 Ar
39 19 40 Ar
40 20 38 1
41 21 22 Ar
42 21 41 Ar
43 21 56 1
44 22 23 Ar
45 22 57 1
46 23 24 Ar
47 24 25 Ar
48 24 59 1
49 25 41 Ar
50 25 58 1
51 26 27 Ar
52 26 35 Ar
53 26 55 1
54 27 28 Ar
55 28 29 Ar
56 28 54 1
57 29 50 Ar
58 29 53 1
59 30 31 Ar
60 30 39 Ar
61 30 61 1
62 31 32 Ar
63 31 60 1
64 32 33 Ar
65 33 34 Ar
66 33 63 1
67 34 39 Ar
68 34 62 1
69 35 50 Ar
70 35 52 1
71 37 38 1
72 39 64 1
73 40 46 1
74 41 71 1
75 50 51 1
76 64 65 2
77 64 66 1
78 66 67 1
79 67 68 1
80 67 69 1
81 67 70 1
82 71 72 1
83 71 73 2
84 72 74 1
85 74 75 1
86 74 76 1
87 74 77 1
