# F5C_OPT
# Created by GaussView 6.0.16
#

#
#

@<TRIPOS>MOLECULE
Molecule Name
67 74
SMALL
NO_CHARGES


@<TRIPOS>ATOM
1 C1     3.2689    -1.9858     0.0374 C
2 C2     0.0904     1.7796    -0.0230 C
3 C3    -3.4525    -1.6404    -0.0722 C
4 C4     0.5016    -4.2720    -0.0364 C
5 C5     1.5172    -5.2554    -0.0929 C
6 C6     2.7448    -4.5859    -0.0767 C
7 C7     2.4747    -3.1620    -0.0034 C
8 N8     1.1098    -3.0424     0.0166 N
9 C9     2.7549    -0.6738     0.0357 C
10 C10     3.5187     0.5474     0.0896 C
11 C11     2.6453     1.6044     0.0708 C
12 C12     1.3100     1.0724     0.0061 C
13 N13     1.4106    -0.3077    -0.0126 N
14 C14    -1.1971     1.1990    -0.0513 C
15 C15    -2.4681     1.8693    -0.1194 C
16 C16    -3.4485     0.9102    -0.1321 C
17 C17    -2.8181    -0.3824    -0.0722 C
18 N18    -1.4399    -0.1617    -0.0276 N
19 C19    -2.7619    -2.8769    -0.0617 C
20 C20    -3.2085    -4.2343    -0.0379 C
21 C21    -2.0692    -5.0408    -0.0380 C
22 C22    -0.9263    -4.1905    -0.0517 C
23 N23    -1.3922    -2.9062    -0.0703 N
24 C24    -4.9370    -1.6799    -0.0772 C
25 C25    -5.6475    -2.2684    -1.1273 C
26 C26    -7.0361    -2.3260    -1.1377 C
27 C27    -7.7549    -1.7809    -0.0794 C
28 C28    -7.0788    -1.1870     0.9808 C
29 C29    -5.6896    -1.1491     0.9747 C
30 C30     0.1649     3.2657    -0.0230 C
31 C31    -0.3412     4.0235     1.0365 C
32 C32    -0.2867     5.4121     1.0441 C
33 C33     0.2981     6.0822    -0.0248 C
34 C34     0.8172     5.3585    -1.0927 C
35 C35     0.7410     3.9707    -1.0832 C
36 F36    -0.9027     3.4118     2.0919 F
37 F37    -0.7817     6.1065     2.0777 F
38 F38     0.3624     7.4177    -0.0248 F
39 F39     1.3771     6.0015    -2.1264 F
40 F40     1.2433     3.3072    -2.1370 F
41 C41     4.7489    -2.1085     0.1366 C
42 C42     5.5837    -1.9219    -0.9644 C
43 C43     6.9610    -2.0710    -0.8719 C
44 C44     7.5380    -2.4207     0.3452 C
45 C45     6.7335    -2.6068     1.4634 C
46 C46     5.3654    -2.4256     1.3398 C
47 H47     1.3743    -6.3219    -0.1740 H
48 H48     4.5973     0.6000     0.1413 H
49 H49     2.8979     2.6545     0.1121 H
50 H50    -2.6069     2.9399    -0.1696 H
51 H51    -4.5148     1.0769    -0.1965 H
52 H52    -4.2325    -4.5792    -0.0282 H
53 H53     0.6396    -0.9431    -0.0542 H
54 H54    -0.8095    -2.0937    -0.0879 H
55 H55     0.6200    -2.1718     0.0636 H
56 H56    -2.0566    -6.1107    -0.0293 H
57 H57     3.7118    -5.0425    -0.1121 H
58 H58    -8.8242    -1.8185    -0.0806 H
59 H59    -7.6292    -0.7716     1.7990 H
60 H60    -7.5537    -2.7793    -1.9571 H
61 H61    -5.1241    -2.6868    -1.9615 H
62 H62    -5.1988    -0.6983     1.8119 H
63 H63     4.7681    -2.5679     2.2161 H
64 H64     5.1616    -1.6776    -1.9168 H
65 H65     7.5806    -1.9359    -1.7337 H
66 H66     8.5974    -2.5520     0.4188 H
67 H67     7.1632    -2.8901     2.4015 H
@<TRIPOS>BOND
1 1 7 Ar
2 1 9 Ar
3 1 41 1
4 2 12 Ar
5 2 14 Ar
6 2 30 1
7 3 17 Ar
8 3 19 Ar
9 3 24 1
10 4 5 Ar
11 4 8 Ar
12 4 22 Ar
13 5 6 Ar
14 5 47 1
15 6 7 1
16 6 57 1
17 7 8 Ar
18 8 55 1
19 9 10 Ar
20 9 13 1
21 10 11 2
22 10 48 1
23 11 12 Ar
24 11 49 1
25 12 13 1
26 13 53 1
27 14 15 Ar
28 14 18 1
29 15 16 2
30 15 50 1
31 16 17 Ar
32 16 51 1
33 17 18 1
34 19 20 Ar
35 19 23 Ar
36 20 21 Ar
37 20 52 1
38 21 22 Ar
39 21 56 1
40 22 23 Ar
41 23 54 1
42 24 25 Ar
43 24 29 Ar
44 25 26 Ar
45 25 61 1
46 26 27 Ar
47 26 60 1
48 27 28 Ar
49 27 58 1
50 28 29 Ar
51 28 59 1
52 29 62 1
53 30 31 Ar
54 30 35 Ar
55 31 32 Ar
56 31 36 1
57 32 33 Ar
58 32 37 1
59 33 34 Ar
60 33 38 1
61 34 35 Ar
62 34 39 1
63 35 40 1
64 41 42 Ar
65 41 46 Ar
66 42 43 Ar
67 42 64 1
68 43 44 Ar
69 43 65 1
70 44 45 Ar
71 44 66 1
72 45 46 2
73 45 67 1
74 46 63 1
