# 4MePh3_NO2_4_TD
# Created by GaussView 6.0.16
#

#
#

@<TRIPOS>MOLECULE
Molecule Name
80 87
SMALL
NO_CHARGES


@<TRIPOS>ATOM
1 C1     3.5577    -0.3409    -0.0486 C
2 C2    -0.6169     2.3147     0.0535 C
3 C3    -3.1709    -1.8803    -0.2302 C
4 C4     1.3844    -3.2329    -0.3859 C
5 C5     3.4893    -2.9589     0.3660 C
6 C6     3.0387    -1.6713    -0.0430 C
7 N7     1.7686    -1.9088    -0.5136 N
8 C8     2.6810     0.7553    -0.0852 C
9 C9     2.9852     2.1161    -0.4359 C
10 C10     1.8282     2.8467    -0.4194 C
11 C11     0.7368     1.9830    -0.0499 C
12 N12     1.3013     0.7291     0.1214 N
13 C13    -1.6868     1.3687     0.1801 C
14 C14    -3.0978     1.6776     0.3879 C
15 C15    -3.8229     0.5286     0.2149 C
16 C16    -2.8628    -0.5100    -0.0247 C
17 N17    -1.5845     0.0347    -0.0462 N
18 C18    -2.1612    -2.8412    -0.4647 C
19 C19    -0.8137    -4.6793    -0.4829 C
20 C20    -0.0052    -3.5152    -0.5170 C
21 N21    -0.8495    -2.4471    -0.5567 N
22 C22    -0.9539     3.7562    -0.0952 C
23 C23    -0.3992     4.7245     0.7541 C
24 C24    -1.6123     6.4971    -0.3866 C
25 H25     1.2902    -1.2408    -1.1040 H
26 H26     3.9673     2.4601    -0.7233 H
27 H27     1.7155     3.8861    -0.6876 H
28 H28     0.7959    -0.0182     0.5766 H
29 H29    -4.8948     0.4320     0.2868 H
30 H30    -0.4464    -5.6961    -0.4699 H
31 H31    -0.6482    -1.4481    -0.4255 H
32 C32    -1.8342     4.1827    -1.1011 C
33 H33     0.2629     4.4111     1.5555 H
34 H34    -2.2667     3.4531    -1.7793 H
35 C35    -4.5692    -2.3591    -0.1461 C
36 C36    -5.1128    -3.1483    -1.1750 C
37 C37    -5.3770    -2.0740     0.9660 C
38 C38    -6.4191    -3.6186    -1.0965 C
39 H39    -4.5104    -3.3698    -2.0507 H
40 C40    -6.6837    -2.5510     1.0379 C
41 H41    -4.9685    -1.4956     1.7884 H
42 C42    -7.2290    -3.3307     0.0113 C
43 H43    -6.8217    -4.2155    -1.9114 H
44 H44    -7.2868    -2.3215     1.9127 H
45 C45     5.0142    -0.1094    -0.1310 C
46 C46     5.7992    -0.8561    -1.0267 C
47 C47     5.6542     0.8537     0.6622 C
48 C48     7.1683    -0.6437    -1.1229 C
49 H49     5.3248    -1.6016    -1.6587 H
50 C50     7.0273     1.0642     0.5580 C
51 H51     5.0759     1.4189     1.3864 H
52 C52     7.8099     0.3213    -0.3327 C
53 H53     7.7534    -1.2332    -1.8248 H
54 H54     7.5021     1.8080     1.1930 H
55 C55    -2.1590     5.5293    -1.2385 C
56 H56    -2.8495     5.8343    -2.0211 H
57 C57    -0.7245     6.0696     0.6090 C
58 H58    -0.2974     6.7995     1.2923 H
59 C59    -1.9555     7.9562    -0.5485 C
60 H60    -1.8244     8.5034     0.3908 H
61 H61    -1.3131     8.4362    -1.2992 H
62 H62    -2.9918     8.0894    -0.8771 H
63 C63     9.2965     0.5423    -0.4469 C
64 H64     9.8501    -0.3939    -0.3053 H
65 H65     9.5684     0.9278    -1.4381 H
66 H66     9.6539     1.2594     0.2987 H
67 C67    -8.6359    -3.8641     0.0958 C
68 H68    -9.1847    -3.6948    -0.8379 H
69 H69    -8.6386    -4.9468     0.2784 H
70 H70    -9.1954    -3.3902     0.9082 H
71 N71     4.6935    -3.2805     1.0703 N
72 O72     5.0260    -4.4734     1.0993 O
73 O73     5.3164    -2.3723     1.6256 O
74 C74    -2.1430    -4.2664    -0.4496 C
75 H75    -3.0154    -4.9000    -0.3834 H
76 N76    -3.7119     2.8844     0.8834 N
77 C77     2.4780    -3.9138     0.1446 C
78 H78     2.5160    -4.9495     0.4446 H
79 O79    -4.8218     3.1863     0.4322 O
80 O80    -3.1280     3.5069     1.7721 O
@<TRIPOS>BOND
1 1 6 Ar
2 1 8 Ar
3 1 45 1
4 2 11 Ar
5 2 13 Ar
6 2 22 1
7 3 16 Ar
8 3 18 Ar
9 3 35 1
10 4 7 1
11 4 20 Ar
12 4 77 Ar
13 5 6 Ar
14 5 71 1
15 5 77 Ar
16 6 7 Ar
17 7 25 1
18 8 9 Ar
19 8 12 1
20 9 10 2
21 9 26 1
22 10 11 Ar
23 10 27 1
24 11 12 1
25 12 28 1
26 13 14 1
27 13 17 Ar
28 14 15 2
29 14 76 1
30 15 16 Ar
31 15 29 1
32 16 17 1
33 18 21 Ar
34 18 74 Ar
35 19 20 Ar
36 19 30 1
37 19 74 Ar
38 20 21 Ar
39 21 31 1
40 22 23 Ar
41 22 32 Ar
42 23 33 1
43 23 57 Ar
44 24 55 Ar
45 24 57 Ar
46 24 59 1
47 32 34 1
48 32 55 Ar
49 35 36 Ar
50 35 37 Ar
51 36 38 Ar
52 36 39 1
53 37 40 Ar
54 37 41 1
55 38 42 Ar
56 38 43 1
57 40 42 Ar
58 40 44 1
59 42 67 1
60 45 46 Ar
61 45 47 Ar
62 46 48 Ar
63 46 49 1
64 47 50 Ar
65 47 51 1
66 48 52 Ar
67 48 53 1
68 50 52 Ar
69 50 54 1
70 52 63 1
71 55 56 1
72 57 58 1
73 59 60 1
74 59 61 1
75 59 62 1
76 63 64 1
77 63 65 1
78 63 66 1
79 67 68 1
80 67 69 1
81 67 70 1
82 71 72 Ar
83 71 73 Ar
84 74 75 1
85 76 79 Ar
86 76 80 Ar
87 77 78 1
