# F5N2_TD
# Created by GaussView 6.0.16
#

#
#

@<TRIPOS>MOLECULE
Molecule Name
65 72
SMALL
NO_CHARGES


@<TRIPOS>ATOM
1 C1     3.4446    -1.7686    -0.1238 C
2 C2    -0.0093     1.7401    -0.0269 C
3 C3    -3.4136    -1.7942     0.0057 C
4 C4     0.7120    -4.1323    -0.2404 C
5 C5     1.7306    -5.0197     0.1600 C
6 C6     2.9327    -4.3055     0.2156 C
7 C7     2.6700    -2.9564    -0.1323 C
8 N8     1.3202    -2.9043    -0.4268 N
9 C9     2.8633    -0.4919    -0.1516 C
10 C10     3.5040     0.7871    -0.2575 C
11 C11     2.5427     1.7682    -0.2358 C
12 C12     1.2575     1.1466    -0.1005 C
13 N13     1.4957    -0.2130    -0.0772 N
14 C14    -1.2577     1.0615     0.0242 C
15 C15    -2.5496     1.7281     0.0902 C
16 C16    -3.4996     0.7528     0.1005 C
17 C17    -2.8002    -0.5199     0.0524 C
18 N18    -1.4343    -0.2894     0.0058 N
19 C19    -2.6612    -2.9851    -0.1555 C
20 C20    -2.9548    -4.3791    -0.0616 C
21 C21    -1.7510    -5.0771    -0.1236 C
22 C22    -0.7054    -4.1255    -0.2549 C
23 N23    -1.3062    -2.8985    -0.3088 N
24 C24    -4.8814    -1.9224     0.1545 C
25 C25    -5.6408    -2.6763    -0.7532 C
26 C26    -7.0163    -2.7865    -0.5644 C
27 C27    -6.9528    -1.4935     1.3139 C
28 C28    -5.5738    -1.3241     1.2181 C
29 C29     4.9255    -1.8860    -0.0507 C
30 C30     5.5563    -2.4633     1.0592 C
31 C31     6.9461    -2.5655     1.0726 C
32 C32     7.1288    -1.5805    -0.9775 C
33 C33     5.7473    -1.4370    -1.0926 C
34 C34    -0.0299     3.2302    -0.0142 C
35 C35     0.4986     3.9594     1.0554 C
36 C36     0.4946     5.3503     1.0790 C
37 C37    -0.0582     6.0535     0.0138 C
38 C38    -0.5953     5.3601    -1.0662 C
39 C39    -0.5680     3.9695    -1.0722 C
40 H40     1.5836    -6.0521     0.4465 H
41 H41     3.8894    -4.6908     0.5371 H
42 H42     0.9512    -2.2144    -1.0689 H
43 H43     4.5697     0.9297    -0.3612 H
44 H44     2.7061     2.8325    -0.3263 H
45 H45     0.7961    -0.8358     0.3036 H
46 H46    -2.7119     2.7962     0.1254 H
47 H47    -4.5719     0.8855     0.1138 H
48 H48    -3.9398    -4.8053     0.0637 H
49 H49    -1.6202    -6.1496    -0.0794 H
50 H50    -0.8874    -1.9639    -0.2254 H
51 F51     1.0085     6.0143     2.1224 F
52 F52    -0.0719     7.3900     0.0270 F
53 F53    -1.1196     6.0347    -2.0975 F
54 F54    -1.0832     3.3395    -2.1380 F
55 F55     1.0342     3.3192     2.1056 F
56 H56     5.3145    -0.9949    -1.9840 H
57 H57     7.7798    -1.2371    -1.7793 H
58 H58     7.4501    -3.0099     1.9288 H
59 H59     4.9737    -2.8126     1.9053 H
60 H60    -5.1657    -3.1523    -1.6045 H
61 H61    -5.0392    -0.7518     1.9685 H
62 H62    -7.5002    -1.0351     2.1355 H
63 H63    -7.6165    -3.3633    -1.2658 H
64 N64     7.7355    -2.1356     0.0796 N
65 N65    -7.6804    -2.2100     0.4463 N
@<TRIPOS>BOND
1 1 7 Ar
2 1 9 Ar
3 1 29 1
4 2 12 Ar
5 2 14 Ar
6 2 34 1
7 3 17 Ar
8 3 19 Ar
9 3 24 1
10 4 5 Ar
11 4 8 1
12 4 22 Ar
13 5 6 Ar
14 5 40 1
15 6 7 Ar
16 6 41 1
17 7 8 1
18 8 42 1
19 9 10 Ar
20 9 13 1
21 10 11 2
22 10 43 1
23 11 12 Ar
24 11 44 1
25 12 13 Ar
26 13 45 1
27 14 15 1
28 14 18 Ar
29 15 16 2
30 15 46 1
31 16 17 1
32 16 47 1
33 17 18 1
34 19 20 Ar
35 19 23 Ar
36 20 21 Ar
37 20 48 1
38 21 22 Ar
39 21 49 1
40 22 23 Ar
41 23 50 1
42 24 25 Ar
43 24 28 Ar
44 25 26 Ar
45 25 60 1
46 26 63 1
47 26 65 Ar
48 27 28 Ar
49 27 62 1
50 27 65 Ar
51 28 61 1
52 29 30 Ar
53 29 33 Ar
54 30 31 Ar
55 30 59 1
56 31 58 1
57 31 64 Ar
58 32 33 Ar
59 32 57 1
60 32 64 Ar
61 33 56 1
62 34 35 Ar
63 34 39 Ar
64 35 36 Ar
65 35 55 1
66 36 37 Ar
67 36 51 1
68 37 38 Ar
69 37 52 1
70 38 39 Ar
71 38 53 1
72 39 54 1
