# Ga_tpfc_py_TD
# Created by GaussView 6.0.16
#

#
#

@<TRIPOS>MOLECULE
Molecule Name
67 77
SMALL
NO_CHARGES


@<TRIPOS>ATOM
1 C1     3.3560    -1.0200    -0.0056 C
2 C2    -0.0035     2.5690    -0.0802 C
3 C3    -3.3376    -1.0437    -0.0266 C
4 C4     0.7295    -3.4360     0.0116 C
5 C5     1.8206    -4.3461     0.0260 C
6 C6     2.9854    -3.5957     0.0220 C
7 C7     2.6136    -2.2135     0.0081 C
8 N8     1.2527    -2.1734     0.0027 N
9 C9     2.7850     0.2655    -0.0372 C
10 C10     3.4757     1.5183    -0.0114 C
11 C11     2.5487     2.5242    -0.0340 C
12 C12     1.2484     1.9261    -0.0765 C
13 N13     1.4251     0.5543    -0.0760 N
14 C14    -1.2507     1.9176    -0.0624 C
15 C15    -2.5554     2.5057    -0.1076 C
16 C16    -3.4755     1.4933    -0.0914 C
17 C17    -2.7757     0.2461    -0.0407 C
18 N18    -1.4176     0.5450    -0.0262 N
19 C19    -2.5864    -2.2321    -0.0185 C
20 C20    -2.9483    -3.6164     0.0228 C
21 C21    -1.7783    -4.3585     0.0314 C
22 C22    -0.6937    -3.4412    -0.0016 C
23 N23    -1.2259    -2.1827    -0.0351 N
24 C24    -4.8182    -1.1618    -0.0148 C
25 C25    -5.5195    -1.6512    -1.1135 C
26 C26    -6.8991    -1.7850    -1.1094 C
27 C27    -7.6182    -1.4227     0.0187 C
28 C28    -6.9519    -0.9309     1.1305 C
29 C29    -5.5717    -0.8098     1.1019 C
30 F30    -4.8633    -1.9947    -2.2280 F
31 F31    -7.5396    -2.2508    -2.1847 F
32 F32    -8.9449    -1.5463     0.0346 F
33 F33    -7.6421    -0.5885     2.2212 F
34 F34    -4.9627    -0.3505     2.2015 F
35 C35    -0.0075     4.0566    -0.1012 C
36 C36    -0.5445     4.7823     0.9705 C
37 C37    -0.5448     6.1643     0.9587 C
38 C38    -0.0071     6.8554    -0.1305 C
39 C39     0.5265     6.1392    -1.2017 C
40 C40     0.5271     4.7533    -1.1875 C
41 C41     4.8373    -1.1267     0.0276 C
42 C42     5.6220    -0.8202    -1.0807 C
43 C43     7.0035    -0.9288    -1.0604 C
44 C44     7.6388    -1.3600     0.0938 C
45 C45     6.8878    -1.6763     1.2151 C
46 C46     5.5078    -1.5558     1.1697 C
47 F47     5.0443    -0.4181    -2.2189 F
48 F48     7.7248    -0.6308    -2.1441 F
49 F49     8.9664    -1.4700     0.1249 F
50 F50     7.4982    -2.0851     2.3303 F
51 F51     4.8188    -1.8515     2.2780 F
52 Ga52     0.0081    -0.7142    -0.0360 Ga
53 H53     1.7498    -5.4219     0.0346 H
54 H54     4.5462     1.6337     0.0307 H
55 H55     2.7457     3.5822    -0.0087 H
56 H56    -2.7603     3.5613    -0.1564 H
57 H57    -4.5472     1.6004    -0.1228 H
58 H58    -3.9533    -4.0058     0.0440 H
59 H59     3.9934    -3.9779     0.0281 H
60 H60    -1.6999    -5.4334     0.0620 H
61 H61    -0.9506     4.2479     1.8190 H
62 H62    -0.9514     6.7264     1.7889 H
63 H63     0.9377     6.6739    -2.0500 H
64 H64     0.9343     4.2018    -2.0243 H
65 C65     0.0102     8.3271    -0.1660 C
66 H66     0.4567     8.7590    -1.0839 H
67 O67    -0.4137     9.0500     0.7086 O
@<TRIPOS>BOND
1 1 7 Ar
2 1 9 Ar
3 1 41 1
4 2 12 Ar
5 2 14 Ar
6 2 35 1
7 3 17 Ar
8 3 19 Ar
9 3 24 1
10 4 5 Ar
11 4 8 Ar
12 4 22 Ar
13 5 6 2
14 5 53 1
15 6 7 Ar
16 6 59 1
17 7 8 Ar
18 8 52 1
19 9 10 Ar
20 9 13 1
21 10 11 2
22 10 54 1
23 11 12 Ar
24 11 55 1
25 12 13 1
26 13 52 1
27 14 15 Ar
28 14 18 1
29 15 16 2
30 15 56 1
31 16 17 Ar
32 16 57 1
33 17 18 1
34 18 52 1
35 19 20 Ar
36 19 23 Ar
37 20 21 2
38 20 58 1
39 21 22 Ar
40 21 60 1
41 22 23 Ar
42 23 52 1
43 24 25 Ar
44 24 29 Ar
45 25 26 Ar
46 25 30 1
47 26 27 Ar
48 26 31 1
49 27 28 Ar
50 27 32 1
51 28 29 2
52 28 33 1
53 29 34 1
54 35 36 Ar
55 35 40 Ar
56 36 37 2
57 36 61 1
58 37 38 Ar
59 37 62 1
60 38 39 Ar
61 38 65 1
62 39 40 2
63 39 63 1
64 40 64 1
65 41 42 Ar
66 41 46 Ar
67 42 43 2
68 42 47 1
69 43 44 Ar
70 43 48 1
71 44 45 Ar
72 44 49 1
73 45 46 2
74 45 50 1
75 46 51 1
76 65 66 1
77 65 67 2
