# F10_COOCH3__2Br__OPT
# Created by GaussView 6.0.16
#

#
#

@<TRIPOS>MOLECULE
Molecule Name
73 80
SMALL
NO_CHARGES


@<TRIPOS>ATOM
1 C1     3.4449    -1.9699    -0.0524 C
2 C2     1.4878     2.5584    -0.0920 C
3 C3    -2.9475     0.4591    -0.1015 C
4 C4     0.0554    -3.2070    -0.1994 C
5 C5     0.6839    -4.3891     0.2443 C
6 C6     2.0585    -4.1481     0.3234 C
7 C7     2.3018    -2.8043    -0.0609 C
8 N8     1.0670    -2.2817    -0.3924 N
9 C9     3.3616    -0.5677    -0.1059 C
10 C10     4.4176     0.3881    -0.2623 C
11 C11     3.8741     1.6503    -0.2754 C
12 C12     2.4533     1.5397    -0.1161 C
13 N13     2.1903     0.1836    -0.0400 N
14 C14     0.0800     2.3648    -0.0648 C
15 C15    -0.8948     3.4465    -0.0065 C
16 C16    -2.1283     2.8701    -0.0124 C
17 C17    -1.9228     1.4345    -0.0628 C
18 N18    -0.5681     1.1625    -0.0892 N
19 C19    -2.6742    -0.9219    -0.2128 C
20 C20    -3.4571    -2.1135    -0.1341 C
21 C21    -2.5874    -3.1992    -0.1491 C
22 C22    -1.2618    -2.6928    -0.2454 C
23 N23    -1.3765    -1.3319    -0.3175 N
24 C24    -4.3665     0.8757     0.0036 C
25 C25    -5.2936     0.5637    -0.9977 C
26 C26    -6.6332     0.9261    -0.9079 C
27 C27    -7.0827     1.6271     0.2063 C
28 C28    -6.1893     1.9533     1.2215 C
29 C29    -4.8565     1.5704     1.1159 C
30 F30    -4.9006    -0.0988    -2.0961 F
31 F31    -7.4882     0.6165    -1.8912 F
32 F32    -8.3669     1.9851     0.3017 F
33 F33    -6.6215     2.6163     2.3017 F
34 F34    -4.0391     1.8810     2.1322 F
35 C35     4.7872    -2.6023     0.0349 C
36 C36     5.1947    -3.3051     1.1727 C
37 C37     6.4378    -3.9233     1.2578 C
38 C38     7.3245    -3.8336     0.1896 C
39 C39     6.9558    -3.1344    -0.9551 C
40 C40     5.7000    -2.5402    -1.0228 C
41 F41     4.3728    -3.4068     2.2293 F
42 F42     6.7907    -4.5892     2.3644 F
43 F43     8.5251    -4.4154     0.2635 F
44 F44     7.8040    -3.0482    -1.9875 F
45 F45     5.3797    -1.8850    -2.1492 F
46 C46     2.0073     3.9579    -0.1175 C
47 C47     2.8180     4.4370     0.9228 C
48 C48     3.3137     5.7403     0.8971 C
49 C49     3.0058     6.5865    -0.1693 C
50 C50     2.2009     6.1207    -1.2106 C
51 C51     1.7075     4.8169    -1.1860 C
52 H52     0.1722    -5.2915     0.5500 H
53 H53     2.8032    -4.8355     0.6970 H
54 H54     0.9812    -1.5206    -1.0543 H
55 H55     5.4610     0.1362    -0.3828 H
56 H56     4.4041     2.5813    -0.4102 H
57 H57     1.3072    -0.1430     0.3275 H
58 H58    -0.6643     4.5008     0.0402 H
59 H59    -3.0850     3.3737     0.0049 H
60 H60    -0.6499    -0.6097    -0.2410 H
61 H61     3.9353     6.0957     1.7143 H
62 H62     1.9614     6.7706    -2.0477 H
63 H63     1.0913     4.4520    -2.0021 H
64 H64     3.0481     3.7832     1.7588 H
65 C65     3.5512     8.0264    -0.1974 C
66 O66     4.4592     8.5165    -0.8674 O
67 O67     2.8967     8.8418     0.6677 O
68 C68     3.4310    10.1671     0.6123 C
69 H69     3.3207    10.5550    -0.3788 H
70 H70     2.9036    10.7933     1.3012 H
71 H71     4.4685    10.1446     0.8730 H
72 Br72    -5.3608    -2.1821     0.0053 Br
73 Br73    -3.0607    -5.0479    -0.0682 Br
@<TRIPOS>BOND
1 1 7 Ar
2 1 9 Ar
3 1 35 1
4 2 12 Ar
5 2 14 Ar
6 2 46 1
7 3 17 Ar
8 3 19 Ar
9 3 24 1
10 4 5 Ar
11 4 8 1
12 4 22 Ar
13 5 6 Ar
14 5 52 1
15 6 7 Ar
16 6 53 1
17 7 8 Ar
18 8 54 1
19 9 10 Ar
20 9 13 1
21 10 11 2
22 10 55 1
23 11 12 Ar
24 11 56 1
25 12 13 1
26 13 57 1
27 14 15 1
28 14 18 Ar
29 15 16 2
30 15 58 1
31 16 17 1
32 16 59 1
33 17 18 1
34 19 20 Ar
35 19 23 Ar
36 20 21 Ar
37 20 72 1
38 21 22 Ar
39 21 73 1
40 22 23 Ar
41 23 60 1
42 24 25 Ar
43 24 29 Ar
44 25 26 Ar
45 25 30 1
46 26 27 Ar
47 26 31 1
48 27 28 Ar
49 27 32 1
50 28 29 Ar
51 28 33 1
52 29 34 1
53 35 36 Ar
54 35 40 Ar
55 36 37 Ar
56 36 41 1
57 37 38 Ar
58 37 42 1
59 38 39 Ar
60 38 43 1
61 39 40 Ar
62 39 44 1
63 40 45 1
64 46 47 Ar
65 46 51 Ar
66 47 48 Ar
67 47 64 1
68 48 49 Ar
69 48 61 1
70 49 50 Ar
71 49 65 1
72 50 51 Ar
73 50 62 1
74 51 63 1
75 65 66 2
76 65 67 1
77 67 68 1
78 68 69 1
79 68 70 1
80 68 71 1
