# F10_COOCH3__3Br__OPT
# Created by GaussView 6.0.16
#

#
#

@<TRIPOS>MOLECULE
Molecule Name
73 80
SMALL
NO_CHARGES


@<TRIPOS>ATOM
1 C1     3.5078    -0.7166    -0.1897 C
2 C2     0.4560     3.1585    -0.1076 C
3 C3    -3.2934    -0.0071    -0.1198 C
4 C4     0.5463    -2.7783    -0.3304 C
5 C5     1.4633    -3.7680     0.0802 C
6 C6     2.7314    -3.1843     0.1508 C
7 C7     2.6164    -1.8159    -0.2055 C
8 N8     1.2840    -1.6210    -0.5127 N
9 C9     3.0673     0.6181    -0.2108 C
10 C10     3.8408     1.8155    -0.3562 C
11 C11     2.9921     2.8962    -0.3355 C
12 C12     1.6496     2.4220    -0.1644 C
13 N13     1.7439     1.0426    -0.1162 N
14 C14    -0.8548     2.6100    -0.0707 C
15 C15    -2.0730     3.4043     0.0218 C
16 C16    -3.1177     2.5311     0.0153 C
17 C17    -2.5523     1.1975    -0.0695 C
18 N18    -1.1736     1.2824    -0.1156 N
19 C19    -2.6774    -1.2695    -0.2649 C
20 C20    -3.1277    -2.6233    -0.2051 C
21 C21    -2.0093    -3.4492    -0.2533 C
22 C22    -0.8592    -2.6181    -0.3515 C
23 N23    -1.3198    -1.3310    -0.3919 N
24 C24    -4.7700     0.0297     0.0090 C
25 C25    -5.6017    -0.4902    -0.9897 C
26 C26    -6.9879    -0.4851    -0.8783 C
27 C27    -7.5846     0.0557     0.2559 C
28 C28    -6.7889     0.5805     1.2691 C
29 C29    -5.4043     0.5542     1.1415 C
30 F30    -5.0692    -1.0087    -2.1067 F
31 F31    -7.7503    -0.9847    -1.8597 F
32 F32    -8.9160     0.0706     0.3723 F
33 F33    -7.3596     1.0896     2.3683 F
34 F34    -4.6780     1.0443     2.1563 F
35 C35     4.9685    -0.9854    -0.1302 C
36 C36     5.5599    -1.5819     0.9873 C
37 C37     6.9211    -1.8622     1.0459 C
38 C38     7.7385    -1.5278    -0.0288 C
39 C39     7.1853    -0.9246    -1.1538 C
40 C40     5.8183    -0.6711    -1.1954 C
41 F41     4.8080    -1.9111     2.0496 F
42 F42     7.4499    -2.4365     2.1336 F
43 F43     9.0491    -1.7837     0.0198 F
44 F44     7.9671    -0.6041    -2.1924 F
45 F45     5.3235    -0.0984    -2.3035 F
46 C46     0.5993     4.6446    -0.1069 C
47 C47     1.2762     5.2955     0.9357 C
48 C48     1.4212     6.6826     0.9344 C
49 C49     0.8904     7.4419    -0.1095 C
50 C50     0.2156     6.8053    -1.1529 C
51 C51     0.0730     5.4184    -1.1527 C
52 H52     1.2046    -4.7772     0.3707 H
53 H53     0.9959    -0.8948    -1.1564 H
54 H54     4.9119     1.8418    -0.4930 H
55 H55     3.2638     3.9344    -0.4546 H
56 H56     0.9797     0.4936     0.2527 H
57 H57    -2.1195     4.4814     0.0900 H
58 H58    -4.1711     2.7723     0.0537 H
59 H59    -0.8012    -0.4483    -0.3064 H
60 H60     1.9436     7.1697     1.7531 H
61 H61    -0.1953     7.3881    -1.9727 H
62 H62    -0.4419     4.9234    -1.9706 H
63 H63     1.6790     4.7066     1.7544 H
64 C64     1.0484     8.9738    -0.1106 C
65 O65     1.7900     9.6930    -0.7786 O
66 O66     0.2204     9.5773     0.7791 O
67 C67     0.3965    10.9961     0.7482 C
68 H68     0.1752    11.3617    -0.2328 H
69 H69    -0.2629    11.4529     1.4563 H
70 H70     1.4091    11.2353     0.9979 H
71 Br71    -4.9480    -3.1802    -0.0482 Br
72 Br72    -1.9921    -5.3587    -0.2093 Br
73 Br73     4.3258    -4.0339     0.7707 Br
@<TRIPOS>BOND
1 1 7 Ar
2 1 9 Ar
3 1 35 1
4 2 12 Ar
5 2 14 Ar
6 2 46 1
7 3 17 Ar
8 3 19 Ar
9 3 24 1
10 4 5 Ar
11 4 8 1
12 4 22 Ar
13 5 6 Ar
14 5 52 1
15 6 7 Ar
16 6 73 1
17 7 8 Ar
18 8 53 1
19 9 10 Ar
20 9 13 1
21 10 11 2
22 10 54 1
23 11 12 Ar
24 11 55 1
25 12 13 1
26 13 56 1
27 14 15 1
28 14 18 Ar
29 15 16 2
30 15 57 1
31 16 17 1
32 16 58 1
33 17 18 1
34 19 20 Ar
35 19 23 Ar
36 20 21 Ar
37 20 71 1
38 21 22 Ar
39 21 72 1
40 22 23 Ar
41 23 59 1
42 24 25 Ar
43 24 29 Ar
44 25 26 Ar
45 25 30 1
46 26 27 Ar
47 26 31 1
48 27 28 Ar
49 27 32 1
50 28 29 Ar
51 28 33 1
52 29 34 1
53 35 36 Ar
54 35 40 Ar
55 36 37 Ar
56 36 41 1
57 37 38 Ar
58 37 42 1
59 38 39 Ar
60 38 43 1
61 39 40 Ar
62 39 44 1
63 40 45 1
64 46 47 Ar
65 46 51 Ar
66 47 48 Ar
67 47 63 1
68 48 49 Ar
69 48 60 1
70 49 50 Ar
71 49 64 1
72 50 51 Ar
73 50 61 1
74 51 62 1
75 64 65 2
76 64 66 1
77 66 67 1
78 67 68 1
79 67 69 1
80 67 70 1
