# F10_COOCH3__4Br__OPT
# Created by GaussView 6.0.16
#

#
#

@<TRIPOS>MOLECULE
Molecule Name
73 80
SMALL
NO_CHARGES


@<TRIPOS>ATOM
1 C1    -3.4589     0.0844     0.2395 C
2 C2     0.0549     3.5443     0.1012 C
3 C3     3.3772    -0.0666     0.1482 C
4 C4    -0.7792    -2.3309     0.4020 C
5 C5    -1.8147    -3.2028     0.0061 C
6 C6    -2.9997    -2.4654    -0.0700 C
7 C7    -2.7126    -1.1178     0.2682 C
8 N8    -1.3653    -1.0878     0.5704 N
9 C9    -2.8543     1.3535     0.2424 C
10 C10    -3.4709     2.6402     0.3734 C
11 C11    -2.4933     3.6054     0.3369 C
12 C12    -1.2215     2.9643     0.1697 C
13 N13    -1.4884     1.6072     0.1398 N
14 C14     1.2863     2.8351     0.0691 C
15 C15     2.5943     3.4689    -0.0360 C
16 C16     3.5211     2.4716    -0.0199 C
17 C17     2.7930     1.2207     0.0834 C
18 N18     1.4361     1.4786     0.1309 N
19 C19     2.6081    -1.2398     0.3109 C
20 C20     2.8847    -2.6400     0.2681 C
21 C21     1.6716    -3.3183     0.3292 C
22 C22     0.6353    -2.3482     0.4185 C
23 N23     1.2539    -1.1286     0.4411 N
24 C24     4.8463    -0.2172     0.0163 C
25 C25     5.6096    -0.8247     1.0203 C
26 C26     6.9850    -0.9951     0.9064 C
27 C27     7.6410    -0.5481    -0.2359 C
28 C28     6.9141     0.0595    -1.2545 C
29 C29     5.5375     0.2089    -1.1241 C
30 F30     5.0200    -1.2578     2.1449 F
31 F31     7.6820    -1.5739     1.8928 F
32 F32     8.9634    -0.7020    -0.3548 F
33 F33     7.5404     0.4788    -2.3613 F
34 F34     4.8751     0.7733    -2.1439 F
35 C35    -4.9420     0.0005     0.1862 C
36 C36    -5.6075    -0.5313    -0.9224 C
37 C37    -6.9933    -0.6392    -0.9749 C
38 C38    -7.7586    -0.1910     0.0968 C
39 C39    -7.1302     0.3522     1.2128 C
40 C40    -5.7421     0.4326     1.2486 C
41 F41    -4.9065    -0.9659    -1.9816 F
42 F42    -7.5937    -1.1564    -2.0540 F
43 F43    -9.0911    -0.2810     0.0539 F
44 F44    -7.8620     0.7817     2.2485 F
45 F45    -5.1755     0.9527     2.3483 F
46 C46     0.0993     5.0365     0.0812 C
47 C47    -0.4941     5.7539    -0.9686 C
48 C48    -0.4638     7.1481    -0.9853 C
49 C49     0.1616     7.8480     0.0476 C
50 C50     0.7548     7.1451     1.0981 C
51 C51     0.7222     5.7514     1.1158 C
52 H52    -0.9860    -0.3954     1.2040 H
53 H53    -4.5298     2.8026     0.5117 H
54 H54    -2.6322     4.6710     0.4429 H
55 H55    -0.8004     0.9618    -0.2233 H
56 H56     2.7753     4.5306    -0.1183 H
57 H57     4.5963     2.5780    -0.0633 H
58 H58     0.8500    -0.1890     0.3451 H
59 H59    -0.9237     7.6864    -1.8094 H
60 H60     1.2384     7.6821     1.9094 H
61 H61     1.1736     5.2062     1.9392 H
62 H62    -0.9705     5.2097    -1.7789 H
63 C63     0.1973     9.3875     0.0289 C
64 O64    -0.4460    10.2026     0.6887 O
65 O65     1.0914     9.8709    -0.8701 O
66 C66     1.0949    11.3008    -0.8575 C
67 H67     1.3637    11.6482     0.1182 H
68 H68     1.8040    11.6621    -1.5727 H
69 H69     0.1195    11.6621    -1.1085 H
70 Br70     4.6201    -3.4231     0.1153 Br
71 Br71     1.4147    -5.2109     0.3102 Br
72 Br72    -4.6902    -3.1159    -0.6759 Br
73 Br73    -1.5869    -5.0346    -0.4844 Br
@<TRIPOS>BOND
1 1 7 Ar
2 1 9 Ar
3 1 35 1
4 2 12 Ar
5 2 14 Ar
6 2 46 1
7 3 17 Ar
8 3 19 Ar
9 3 24 1
10 4 5 Ar
11 4 8 1
12 4 22 Ar
13 5 6 Ar
14 5 73 1
15 6 7 Ar
16 6 72 1
17 7 8 Ar
18 8 52 1
19 9 10 Ar
20 9 13 1
21 10 11 2
22 10 53 1
23 11 12 Ar
24 11 54 1
25 12 13 1
26 13 55 1
27 14 15 1
28 14 18 Ar
29 15 16 2
30 15 56 1
31 16 17 1
32 16 57 1
33 17 18 1
34 19 20 Ar
35 19 23 Ar
36 20 21 Ar
37 20 70 1
38 21 22 Ar
39 21 71 1
40 22 23 Ar
41 23 58 1
42 24 25 Ar
43 24 29 Ar
44 25 26 Ar
45 25 30 1
46 26 27 Ar
47 26 31 1
48 27 28 Ar
49 27 32 1
50 28 29 Ar
51 28 33 1
52 29 34 1
53 35 36 Ar
54 35 40 Ar
55 36 37 Ar
56 36 41 1
57 37 38 Ar
58 37 42 1
59 38 39 Ar
60 38 43 1
61 39 40 Ar
62 39 44 1
63 40 45 1
64 46 47 Ar
65 46 51 Ar
66 47 48 Ar
67 47 62 1
68 48 49 Ar
69 48 59 1
70 49 50 Ar
71 49 63 1
72 50 51 Ar
73 50 60 1
74 51 61 1
75 63 64 2
76 63 65 1
77 65 66 1
78 66 67 1
79 66 68 1
80 66 69 1
