# F10_COOCH3_OPT
# Created by GaussView 6.0.16
#

#
#

@<TRIPOS>MOLECULE
Molecule Name
73 80
SMALL
NO_CHARGES


@<TRIPOS>ATOM
1 C1     3.4879    -1.3903    -0.0610 C
2 C2    -0.0397     2.0583    -0.0910 C
3 C3    -3.3481    -1.5657    -0.1124 C
4 C4     0.8204    -3.8195    -0.2161 C
5 C5     1.8500    -4.6765     0.2253 C
6 C6     3.0306    -3.9327     0.3069 C
7 C7     2.7464    -2.5957    -0.0733 C
8 N8     1.4058    -2.5792    -0.4052 N
9 C9     2.8792    -0.1242    -0.1108 C
10 C10     3.4941     1.1611    -0.2631 C
11 C11     2.5128     2.1230    -0.2736 C
12 C12     1.2399     1.4816    -0.1166 C
13 N13     1.5106     0.1268    -0.0445 N
14 C14    -1.2691     1.3453    -0.0664 C
15 C15    -2.5812     1.9766    -0.0065 C
16 C16    -3.5041     0.9756    -0.0157 C
17 C17    -2.7698    -0.2748    -0.0697 C
18 N18    -1.4130    -0.0129    -0.0949 N
19 C19    -2.5717    -2.7397    -0.2271 C
20 C20    -2.8445    -4.1394    -0.1526 C
21 C21    -1.6282    -4.8143    -0.1694 C
22 C22    -0.5934    -3.8429    -0.2625 C
23 N23    -1.2155    -2.6268    -0.3311 N
24 C24    -4.8192    -1.7184    -0.0082 C
25 C25    -5.5586    -2.3555    -1.0116 C
26 C26    -6.9356    -2.5283    -0.9227 C
27 C27    -7.6176    -2.0534     0.1928 C
28 C28    -6.9148    -1.4159     1.2101 C
29 C29    -5.5363    -1.2647     1.1054 C
30 F30    -4.9435    -2.8163    -2.1113 F
31 F31    -7.6092    -3.1359    -1.9080 F
32 F32    -8.9417    -2.2092     0.2874 F
33 F33    -7.5663    -0.9696     2.2915 F
34 F34    -4.8979    -0.6705     2.1236 F
35 C35     4.9697    -1.4669     0.0264 C
36 C36     5.6129    -1.9662     1.1629 C
37 C37     6.9976    -2.0672     1.2480 C
38 C38     7.7843    -1.6449     0.1814 C
39 C39     7.1784    -1.1342    -0.9620 C
40 C40     5.7911    -1.0602    -1.0298 C
41 F41     4.8907    -2.3751     2.2181 F
42 F42     7.5763    -2.5530     2.3533 F
43 F43     9.1159    -1.7284     0.2553 F
44 F44     7.9309    -0.7297    -1.9929 F
45 F45     5.2466    -0.5720    -2.1549 F
46 C46    -0.0895     3.5502    -0.1121 C
47 C47     0.4787     4.2978     0.9306 C
48 C48     0.4434     5.6918     0.9092 C
49 C49    -0.1620     6.3614    -0.1553 C
50 C50    -0.7300     5.6283    -1.1990 C
51 C51    -0.6923     4.2348    -1.1787 C
52 H52     1.7185    -5.7064     0.5279 H
53 H53     3.9802    -4.2875     0.6798 H
54 H54     1.0380    -1.9054    -1.0651 H
55 H55     4.5552     1.3238    -0.3829 H
56 H56     2.6503     3.1859    -0.4051 H
57 H57     0.8171    -0.5113     0.3209 H
58 H58    -2.7675     3.0394     0.0434 H
59 H59    -4.5803     1.0789     0.0017 H
60 H60    -3.8268    -4.5840    -0.0754 H
61 H61    -1.4793    -5.8846    -0.1268 H
62 H62    -0.8168    -1.6833    -0.2516 H
63 H63     0.8836     6.2538     1.7282 H
64 H64    -1.1978     6.1415    -2.0347 H
65 H65    -1.1240     3.6659    -1.9966 H
66 H66     0.9393     3.7774     1.7652 H
67 C67    -0.2032     7.9007    -0.1787 C
68 O68     0.4514     8.7004    -0.8462 O
69 O69    -1.1181     8.4044     0.6876 O
70 C70    -1.1261     9.8335     0.6365 C
71 H71    -1.3750    10.1536    -0.3537 H
72 H72    -1.8517    10.2110     1.3264 H
73 H73    -0.1576    10.2052     0.8986 H
@<TRIPOS>BOND
1 1 7 Ar
2 1 9 Ar
3 1 35 1
4 2 12 Ar
5 2 14 Ar
6 2 46 1
7 3 17 Ar
8 3 19 Ar
9 3 24 1
10 4 5 Ar
11 4 8 1
12 4 22 Ar
13 5 6 Ar
14 5 52 1
15 6 7 Ar
16 6 53 1
17 7 8 Ar
18 8 54 1
19 9 10 Ar
20 9 13 1
21 10 11 2
22 10 55 1
23 11 12 Ar
24 11 56 1
25 12 13 1
26 13 57 1
27 14 15 1
28 14 18 Ar
29 15 16 2
30 15 58 1
31 16 17 1
32 16 59 1
33 17 18 1
34 19 20 Ar
35 19 23 Ar
36 20 21 Ar
37 20 60 1
38 21 22 Ar
39 21 61 1
40 22 23 Ar
41 23 62 1
42 24 25 Ar
43 24 29 Ar
44 25 26 Ar
45 25 30 1
46 26 27 Ar
47 26 31 1
48 27 28 Ar
49 27 32 1
50 28 29 Ar
51 28 33 1
52 29 34 1
53 35 36 Ar
54 35 40 Ar
55 36 37 Ar
56 36 41 1
57 37 38 Ar
58 37 42 1
59 38 39 Ar
60 38 43 1
61 39 40 Ar
62 39 44 1
63 40 45 1
64 46 47 Ar
65 46 51 Ar
66 47 48 Ar
67 47 66 1
68 48 49 Ar
69 48 63 1
70 49 50 Ar
71 49 67 1
72 50 51 Ar
73 50 64 1
74 51 65 1
75 67 68 2
76 67 69 1
77 69 70 1
78 70 71 1
79 70 72 1
80 70 73 1
