# F10_COON_OPT
# Created by GaussView 6.0.16
#

#
#

@<TRIPOS>MOLECULE
Molecule Name
91 101
SMALL
NO_CHARGES


@<TRIPOS>ATOM
1 C1     3.2891     3.6693    -0.0937 C
2 C2     0.1756    -0.1479     0.1357 C
3 C3     4.0642    -3.1288    -0.1081 C
4 C4     5.9257     1.2205    -0.4044 C
5 C5     6.7205     2.3299    -0.0472 C
6 C6     5.8823     3.4406     0.0865 C
7 C7     4.5499     3.0322    -0.1775 C
8 N8     4.6265     1.6897    -0.4905 N
9 C9     2.0796     2.9542    -0.0564 C
10 C10     0.7380     3.4468    -0.1580 C
11 C11    -0.1299     2.3825    -0.1031 C
12 C12     0.6316     1.1773     0.0520 C
13 N13     1.9576     1.5704     0.0539 N
14 C14     0.9945    -1.3099     0.1430 C
15 C15     0.4873    -2.6692     0.2779 C
16 C16     1.5619    -3.5029     0.2074 C
17 C17     2.7351    -2.6651     0.0393 C
18 N18     2.3536    -1.3369     0.0140 N
19 C19     5.1519    -2.2534    -0.3232 C
20 C20     6.5715    -2.4019    -0.3701 C
21 C21     7.1336    -1.1312    -0.4429 C
22 C22     6.0704    -0.1866    -0.4494 C
23 N23     4.9122    -0.9131    -0.4148 N
24 C24     4.3553    -4.5792    -0.0097 C
25 C25     4.9690    -5.2730    -1.0592 C
26 C26     5.2699    -6.6283    -0.9778 C
27 C27     4.3439    -6.6775     1.2414 C
28 C28     4.0627    -5.3191     1.1422 C
29 F29     5.2797    -4.6344    -2.1975 F
30 F30     5.8506    -7.2578    -2.0075 F
31 F31     4.0503    -7.3512     2.3610 F
32 F32     3.5014    -4.7225     2.2037 F
33 C33     3.2476     5.1539    -0.0403 C
34 C34     3.7668     5.8644     1.0459 C
35 C35     3.7564     7.2543     1.0968 C
36 C36     2.6688     7.3018    -1.0487 C
37 C37     2.7068     5.9119    -1.0836 C
38 F38     4.3057     5.2051     2.0840 F
39 F39     4.2647     7.8989     2.1544 F
40 F40     2.1398     7.9927    -2.0659 F
41 F41     2.1960     5.2996    -2.1629 F
42 C42    -1.3047    -0.3283     0.1837 C
43 C43    -2.0599     0.2074     1.2384 C
44 C44    -3.4447     0.0644     1.2820 C
45 C45    -4.0828    -0.6170     0.2487 C
46 C46    -3.3620    -1.1630    -0.8089 C
47 C47    -1.9774    -1.0179    -0.8364 C
48 H48     7.7801     2.2964     0.1669 H
49 H49     6.1799     4.4251     0.4169 H
50 H50     3.9363     1.2522    -1.0874 H
51 H51     0.4725     4.4844    -0.2969 H
52 H52    -1.2056     2.4208    -0.1912 H
53 H53     2.6725     0.9483     0.4054 H
54 H54    -0.5482    -2.9445     0.4162 H
55 H55     1.5544    -4.5833     0.2537 H
56 H56     7.1059    -3.3408    -0.3336 H
57 H57     8.1863    -0.8889    -0.4919 H
58 H58     3.9461    -0.5982    -0.2613 H
59 H59    -4.0189     0.4777     2.1021 H
60 H60    -3.8899    -1.6869    -1.5988 H
61 H61    -1.4108    -1.4310    -1.6648 H
62 H62    -1.5522     0.7334     2.0407 H
63 O63    -5.4521    -0.8664     0.2611 O
64 C64     3.2008     7.9762     0.0456 C
65 F65     3.1789     9.3116     0.0867 F
66 F66     5.2326    -8.6391     0.2654 F
67 C67     4.9528    -7.3350     0.1774 C
68 C68    -6.3203     0.1769     0.4109 C
69 O69    -5.9945     1.3386     0.5184 O
70 C70    -7.8427    -3.9888     0.8827 C
71 C71    -7.4955    -2.6573     1.0970 C
72 C72    -7.9680    -1.6669     0.2338 C
73 C73    -8.8434    -2.0076    -0.8053 C
74 C74    -9.2088    -3.3419    -1.0041 C
75 C75    -8.6926    -4.3324    -0.1715 C
76 C76    -9.6494     0.5576    -0.6321 C
77 C77    -8.6917     0.6642     0.3840 C
78 C78    -8.8110     1.6594     1.3546 C
79 H79    -8.0689     1.7248     2.1411 H
80 C80    -9.8617     2.5718     1.2839 C
81 C81   -10.8115     2.4735     0.2646 C
82 C82   -10.7160     1.4582    -0.6849 C
83 H83    -7.4572    -4.7565     1.5464 H
84 H84    -6.8421    -2.3796     1.9162 H
85 H85    -9.8972    -3.5958    -1.8042 H
86 H86    -8.9708    -5.3694    -0.3333 H
87 H87    -9.9421     3.3549     2.0315 H
88 H88   -11.6356     3.1789     0.2155 H
89 H89   -11.4634     1.3596    -1.4661 H
90 S90    -9.4804    -0.7221    -1.8648 S
91 N91    -7.6224    -0.2881     0.4134 N
@<TRIPOS>BOND
1 1 7 Ar
2 1 9 Ar
3 1 33 1
4 2 12 Ar
5 2 14 Ar
6 2 42 1
7 3 17 Ar
8 3 19 Ar
9 3 24 1
10 4 5 Ar
11 4 8 1
12 4 22 Ar
13 5 6 Ar
14 5 48 1
15 6 7 Ar
16 6 49 1
17 7 8 Ar
18 8 50 1
19 9 10 Ar
20 9 13 1
21 10 11 2
22 10 51 1
23 11 12 Ar
24 11 52 1
25 12 13 1
26 13 53 1
27 14 15 1
28 14 18 Ar
29 15 16 2
30 15 54 1
31 16 17 1
32 16 55 1
33 17 18 1
34 19 20 Ar
35 19 23 Ar
36 20 21 Ar
37 20 56 1
38 21 22 Ar
39 21 57 1
40 22 23 Ar
41 23 58 1
42 24 25 Ar
43 24 28 Ar
44 25 26 Ar
45 25 29 1
46 26 30 1
47 26 67 Ar
48 27 28 Ar
49 27 31 1
50 27 67 Ar
51 28 32 1
52 33 34 Ar
53 33 37 Ar
54 34 35 Ar
55 34 38 1
56 35 39 1
57 35 64 Ar
58 36 37 Ar
59 36 40 1
60 36 64 Ar
61 37 41 1
62 42 43 Ar
63 42 47 Ar
64 43 44 Ar
65 43 62 1
66 44 45 Ar
67 44 59 1
68 45 46 Ar
69 45 63 1
70 46 47 Ar
71 46 60 1
72 47 61 1
73 63 68 1
74 64 65 1
75 66 67 1
76 68 69 2
77 68 91 1
78 70 71 Ar
79 70 75 Ar
80 70 83 1
81 71 72 Ar
82 71 84 1
83 72 73 Ar
84 72 91 1
85 73 74 Ar
86 73 90 1
87 74 75 Ar
88 74 85 1
89 75 86 1
90 76 77 Ar
91 76 82 Ar
92 76 90 1
93 77 78 Ar
94 77 91 1
95 78 79 1
96 78 80 Ar
97 80 81 Ar
98 80 87 1
99 81 82 Ar
100 81 88 1
101 82 89 1
