# F10_Ga_OH_OPT
# Created by GaussView 6.0.16
#

#
#

@<TRIPOS>MOLECULE
Molecule Name
66 76
SMALL
NO_CHARGES


@<TRIPOS>ATOM
1 C1     3.3620    -0.8876     0.0315 C
2 C2     0.0001     2.7315    -0.0026 C
3 C3    -3.3623    -0.8871    -0.0311 C
4 C4     0.7130    -3.3044     0.0165 C
5 C5     1.8052    -4.2200     0.0055 C
6 C6     2.9766    -3.4713     0.0144 C
7 C7     2.6103    -2.0831     0.0348 C
8 N8     1.2436    -2.0372     0.0394 N
9 C9     2.7922     0.4070     0.0298 C
10 C10     3.4881     1.6628     0.0234 C
11 C11     2.5599     2.6748     0.0035 C
12 C12     1.2537     2.0794     0.0140 C
13 N13     1.4274     0.7006     0.0275 N
14 C14    -1.2536     2.0795    -0.0185 C
15 C15    -2.5597     2.6753    -0.0101 C
16 C16    -3.4880     1.6633    -0.0284 C
17 C17    -2.7923     0.4074    -0.0316 C
18 N18    -1.4274     0.7007    -0.0291 N
19 C19    -2.6109    -2.0826    -0.0326 C
20 C20    -2.9774    -3.4708    -0.0101 C
21 C21    -1.8062    -4.2198    -0.0003 C
22 C22    -0.7138    -3.3043    -0.0125 C
23 N23    -1.2442    -2.0371    -0.0373 N
24 C24    -4.8437    -1.0026    -0.0138 C
25 C25    -5.5398    -1.6097    -1.0644 C
26 C26    -6.9242    -1.7460    -1.0533 C
27 C27    -7.6546    -1.2612     0.0271 C
28 C28    -6.9938    -0.6497     1.0880 C
29 C29    -5.6079    -0.5349     1.0608 C
30 F30    -4.8750    -2.0778    -2.1308 F
31 F31    -7.5576    -2.3295    -2.0785 F
32 F32    -8.9853    -1.3822     0.0460 F
33 F33    -7.6933    -0.1891     2.1327 F
34 F34    -5.0086     0.0445     2.1114 F
35 C35     4.8433    -1.0036     0.0144 C
36 C36     5.5392    -1.6094     1.0658 C
37 C37     6.9236    -1.7462     1.0550 C
38 C38     7.6542    -1.2632    -0.0260 C
39 C39     6.9937    -0.6530    -1.0878 C
40 C40     5.6078    -0.5377    -1.0608 C
41 F41     4.8743    -2.0758     2.1329 F
42 F42     7.5568    -2.3283     2.0812 F
43 F43     8.9849    -1.3845    -0.0446 F
44 F44     7.6933    -0.1940    -2.1331 F
45 F45     5.0088     0.0404    -2.1123 F
46 C46    -0.0003     4.2224    -0.0039 C
47 C47     0.5530     4.9451     1.0624 C
48 C48     0.5566     6.3384     1.0651 C
49 C49    -0.0031     7.0390    -0.0085 C
50 C50    -0.5617     6.3350    -1.0813 C
51 C51    -0.5551     4.9445    -1.0735 C
52 H52     1.7300    -5.2993    -0.0132 H
53 H53     3.9861    -3.8588     0.0019 H
54 H54     4.5628     1.7758     0.0332 H
55 H55     2.7568     3.7364    -0.0209 H
56 H56    -2.7566     3.7370     0.0103 H
57 H57    -4.5627     1.7766    -0.0400 H
58 H58    -3.9871    -3.8581     0.0028 H
59 H59    -1.7312    -5.2990     0.0198 H
60 H60     0.9867     6.8806     1.9047 H
61 H61    -0.9866     6.8890    -1.9122 H
62 H62    -0.9784     4.4046    -1.9151 H
63 H63     0.9776     4.4093     1.9059 H
64 O64    -0.0323     8.4006    -0.0647 O
65 H65     0.3848     8.7602     0.7356 H
66 Ga66    -0.0002    -0.5678    -0.0002 Ga
@<TRIPOS>BOND
1 1 7 Ar
2 1 9 Ar
3 1 35 1
4 2 12 Ar
5 2 14 Ar
6 2 46 1
7 3 17 Ar
8 3 19 Ar
9 3 24 1
10 4 5 Ar
11 4 8 Ar
12 4 22 Ar
13 5 6 Ar
14 5 52 1
15 6 7 Ar
16 6 53 1
17 7 8 Ar
18 8 66 1
19 9 10 Ar
20 9 13 1
21 10 11 2
22 10 54 1
23 11 12 Ar
24 11 55 1
25 12 13 1
26 13 66 1
27 14 15 Ar
28 14 18 1
29 15 16 2
30 15 56 1
31 16 17 Ar
32 16 57 1
33 17 18 1
34 18 66 1
35 19 20 Ar
36 19 23 Ar
37 20 21 Ar
38 20 58 1
39 21 22 Ar
40 21 59 1
41 22 23 Ar
42 23 66 1
43 24 25 Ar
44 24 29 Ar
45 25 26 Ar
46 25 30 1
47 26 27 Ar
48 26 31 1
49 27 28 Ar
50 27 32 1
51 28 29 Ar
52 28 33 1
53 29 34 1
54 35 36 Ar
55 35 40 Ar
56 36 37 Ar
57 36 41 1
58 37 38 Ar
59 37 42 1
60 38 39 Ar
61 38 43 1
62 39 40 Ar
63 39 44 1
64 40 45 1
65 46 47 Ar
66 46 51 Ar
67 47 48 Ar
68 47 63 1
69 48 49 Ar
70 48 60 1
71 49 50 Ar
72 49 64 1
73 50 51 Ar
74 50 61 1
75 51 62 1
76 64 65 1
