# F10_O4_OPT
# Created by GaussView 6.0.16
#

#
#

@<TRIPOS>MOLECULE
Molecule Name
90 99
SMALL
NO_CHARGES


@<TRIPOS>ATOM
1 C1     1.3352    -2.9965    -0.2446 C
2 C2    -0.3975     1.6214    -0.2273 C
3 C3    -4.9330    -0.2339    -0.1507 C
4 C4    -2.1177    -4.0495    -0.3072 C
5 C5    -1.5477    -5.2582     0.1468 C
6 C6    -0.1615    -5.0899     0.2078 C
7 C7     0.1489    -3.7672    -0.2026 C
8 N8    -1.0604    -3.1867    -0.5275 N
9 C9     1.3185    -1.5935    -0.3405 C
10 C10     2.3985    -0.6926    -0.6065 C
11 C11     1.9119     0.5935    -0.6039 C
12 C12     0.5068     0.5513    -0.3267 C
13 N13     0.1878    -0.7900    -0.2097 N
14 C14    -1.8093     1.5063    -0.1429 C
15 C15    -2.7177     2.6381    -0.0244 C
16 C16    -3.9823     2.1320    -0.0139 C
17 C17    -3.8592     0.6881    -0.1116 C
18 N18    -2.5241     0.3434    -0.1824 N
19 C19    -4.7290    -1.6262    -0.2831 C
20 C20    -5.5687    -2.7779    -0.1940 C
21 C21    -4.7540    -3.9053    -0.2209 C
22 C22    -3.4064    -3.4651    -0.3355 C
23 N23    -3.4544    -2.0997    -0.4106 N
24 C24    -6.3277     0.2494    -0.0086 C
25 C25    -7.2921    -0.0026    -0.9917 C
26 C26    -8.6096     0.4249    -0.8674 C
27 C27    -8.9985     1.1347     0.2635 C
28 C28    -8.0677     1.4020     1.2621 C
29 C29    -6.7585     0.9539     1.1225 C
30 F30    -6.9590    -0.6697    -2.1072 F
31 F31    -9.5006     0.1686    -1.8345 F
32 F32   -10.2610     1.5552     0.3919 F
33 F33    -8.4427     2.0715     2.3598 F
34 F34    -5.9061     1.2104     2.1249 F
35 C35     2.6487    -3.6841    -0.1518 C
36 C36     3.0413    -4.3528     1.0120 C
37 C37     4.2685    -4.9994     1.1190 C
38 C38     5.1521    -4.9777     0.0449 C
39 C39     4.7980    -4.3149    -1.1258 C
40 C40     3.5570    -3.6930    -1.2148 C
41 F41     2.2231    -4.3861     2.0747 F
42 F42     4.6095    -5.6280     2.2509 F
43 F43     6.3380    -5.5877     0.1380 F
44 F44     5.6454    -4.2926    -2.1630 F
45 F45     3.2512    -3.0721    -2.3649 F
46 C46     0.2253     2.9749    -0.2392 C
47 C47     1.1436     3.3319     0.7566 C
48 C48     1.8375     4.5382     0.7091 C
49 C49     1.6360     5.4066    -0.3662 C
50 C50     0.6844     5.0895    -1.3450 C
51 C51    -0.0116     3.8880    -1.2793 C
52 H52    -2.1036    -6.1273     0.4711 H
53 H53     0.5507    -5.8104     0.5833 H
54 H54    -1.1176    -2.4050    -1.1673 H
55 H55     3.4129    -0.9922    -0.8178 H
56 H56     2.4674     1.4969    -0.8050 H
57 H57    -0.6649    -1.0710     0.2549 H
58 H58    -2.4227     3.6751     0.0478 H
59 H59    -4.9074     2.6885     0.0460 H
60 H60    -6.6453    -2.7642    -0.0983 H
61 H61    -5.0724    -4.9376    -0.1699 H
62 H62    -2.6941    -1.4095    -0.3445 H
63 H63     2.5686     4.7482     1.4757 H
64 H64     0.5315     5.7814    -2.1674 H
65 H65    -0.7179     3.6330    -2.0638 H
66 H66     1.3488     2.6459     1.5720 H
67 O67     2.3000     6.5907    -0.5598 O
68 C68     3.4821     6.8918     0.1770 C
69 H69     3.6555     7.9539    -0.0165 H
70 H70     3.3343     6.7663     1.2560 H
71 C71     4.7064     6.1166    -0.2885 C
72 H72     4.6759     6.0083    -1.3795 H
73 H73     5.6177     6.6652    -0.0125 H
74 O74     4.7052     4.8385     0.3466 O
75 C75     5.5206     3.8597    -0.1122 C
76 C76     5.3217     2.5825     0.4532 C
77 C77     6.5225     4.0162    -1.0682 C
78 C78     6.1135     1.4903     0.0731 C
79 C79     7.3136     2.9225    -1.4569 C
80 H80     6.6985     4.9881    -1.5142 H
81 C81     4.0155     1.2530     1.9920 C
82 C82     5.8387     0.2293     0.7151 C
83 C83     7.1199     1.6724    -0.8964 C
84 H84     8.0866     3.0708    -2.2044 H
85 C85     4.8452     0.1142     1.6251 C
86 H86     6.4448    -0.6319     0.4452 H
87 H87     7.7314     0.8250    -1.1910 H
88 H88     4.6052    -0.8223     2.1144 H
89 O89     4.3287     2.4610     1.3812 O
90 O90     3.0936     1.2438     2.7785 O
@<TRIPOS>BOND
1 1 7 Ar
2 1 9 Ar
3 1 35 1
4 2 12 Ar
5 2 14 Ar
6 2 46 1
7 3 17 Ar
8 3 19 Ar
9 3 24 1
10 4 5 Ar
11 4 8 1
12 4 22 Ar
13 5 6 Ar
14 5 52 1
15 6 7 Ar
16 6 53 1
17 7 8 Ar
18 8 54 1
19 9 10 Ar
20 9 13 1
21 10 11 2
22 10 55 1
23 11 12 Ar
24 11 56 1
25 12 13 1
26 13 57 1
27 14 15 1
28 14 18 Ar
29 15 16 2
30 15 58 1
31 16 17 1
32 16 59 1
33 17 18 Ar
34 19 20 Ar
35 19 23 Ar
36 20 21 Ar
37 20 60 1
38 21 22 Ar
39 21 61 1
40 22 23 Ar
41 23 62 1
42 24 25 Ar
43 24 29 Ar
44 25 26 Ar
45 25 30 1
46 26 27 Ar
47 26 31 1
48 27 28 Ar
49 27 32 1
50 28 29 Ar
51 28 33 1
52 29 34 1
53 35 36 Ar
54 35 40 Ar
55 36 37 Ar
56 36 41 1
57 37 38 Ar
58 37 42 1
59 38 39 Ar
60 38 43 1
61 39 40 Ar
62 39 44 1
63 40 45 1
64 46 47 Ar
65 46 51 Ar
66 47 48 Ar
67 47 66 1
68 48 49 Ar
69 48 63 1
70 49 50 Ar
71 49 67 1
72 50 51 Ar
73 50 64 1
74 51 65 1
75 67 68 1
76 68 69 1
77 68 70 1
78 68 71 1
79 71 72 1
80 71 73 1
81 71 74 1
82 74 75 1
83 75 76 Ar
84 75 77 Ar
85 76 78 Ar
86 76 89 1
87 77 79 Ar
88 77 80 1
89 78 82 Ar
90 78 83 Ar
91 79 83 2
92 79 84 1
93 81 85 1
94 81 89 1
95 81 90 2
96 82 85 2
97 82 86 1
98 83 87 1
99 85 88 1
