# 4MePh3_NO2_TD
# Created by GaussView 6.0.16
#

#
#

@<TRIPOS>MOLECULE
Molecule Name
78 85
SMALL
NO_CHARGES


@<TRIPOS>ATOM
1 C1     3.2506    -0.4747    -0.0805 C
2 C2    -0.6259     2.5977     0.0469 C
3 C3    -3.5932    -1.3060    -0.1417 C
4 C4     0.7930    -3.1362    -0.3889 C
5 C5     1.8275    -3.9243     0.1077 C
6 C6     2.9349    -3.0755     0.3063 C
7 C7     2.6050    -1.7462    -0.0872 C
8 N8     1.3042    -1.8553    -0.5285 N
9 C9     2.4923     0.7091    -0.0972 C
10 C10     2.9503     2.0464    -0.3599 C
11 C11     1.8800     2.9004    -0.3116 C
12 C12     0.6940     2.1400    -0.0279 C
13 N13     1.1133     0.8234     0.0760 N
14 C14    -1.7907     1.7718     0.0895 C
15 C15    -3.1501     2.2762     0.2097 C
16 C16    -3.9806     1.1964     0.1486 C
17 C17    -3.1383     0.0239     0.0108 C
18 N18    -1.8075     0.4158    -0.0114 N
19 C19    -2.6939    -2.3800    -0.3701 C
20 C20    -2.8248    -3.7975    -0.3598 C
21 C21    -1.5448    -4.3483    -0.4290 C
22 C22    -0.6216    -3.2762    -0.4791 C
23 N23    -1.3526    -2.1246    -0.4879 N
24 C24    -0.8136     4.0768     0.0378 C
25 C25    -0.2364     4.8794     1.0338 C
26 C26    -1.1604     6.8936     0.0300 C
27 H27     1.7694    -4.9586     0.4098 H
28 H28     0.8893    -1.1584    -1.1335 H
29 H29     3.9711     2.2988    -0.6042 H
30 H30     1.8899     3.9626    -0.5053 H
31 H31     0.5074     0.1156     0.4677 H
32 H32    -3.4304     3.3130     0.3253 H
33 H33    -5.0608     1.1980     0.1741 H
34 H34    -3.7565    -4.3382    -0.2779 H
35 H35    -1.2871    -5.3984    -0.4344 H
36 H36    -1.0497    -1.1493    -0.3517 H
37 C37    -1.5629     4.7095    -0.9657 C
38 H38     0.3372     4.4088     1.8269 H
39 H39    -2.0093     4.1103    -1.7536 H
40 C40    -5.0348    -1.6263    -0.0307 C
41 C41    -5.6766    -2.3899    -1.0196 C
42 C42    -5.7954    -1.2008     1.0710 C
43 C43    -7.0286    -2.7054    -0.9132 C
44 H44    -5.1134    -2.7142    -1.8892 H
45 C45    -7.1462    -1.5210     1.1711 C
46 H46    -5.3145    -0.6314     1.8600 H
47 C47    -7.7885    -2.2798     0.1837 C
48 H48    -7.5045    -3.2856    -1.7001 H
49 H49    -7.7112    -1.1834     2.0367 H
50 C50     4.7249    -0.3871    -0.1442 C
51 C51     5.4423    -1.1757    -1.0590 C
52 C52     5.4490     0.4810     0.6858 C
53 C53     6.8270    -1.0921    -1.1420 C
54 H54     4.9036    -1.8502    -1.7186 H
55 C55     6.8359     0.5638     0.5948 C
56 H56     4.9219     1.0758     1.4250 H
57 C57     7.5517    -0.2200    -0.3174 C
58 H58     7.3572    -1.7099    -1.8630 H
59 H59     7.3739     1.2399     1.2549 H
60 C60    -1.7335     6.0920    -0.9654 C
61 H61    -2.3182     6.5579    -1.7550 H
62 C62    -0.4084     6.2616     1.0285 C
63 H63     0.0407     6.8589     1.8186 H
64 C64    -1.3260     8.3924     0.0152 C
65 H65    -1.3871     8.7990     1.0306 H
66 H66    -0.4757     8.8820    -0.4785 H
67 H67    -2.2308     8.6906    -0.5246 H
68 C68     9.0554    -0.1508    -0.3972 C
69 H69     9.5194    -1.0175     0.0920 H
70 H70     9.4024    -0.1453    -1.4369 H
71 H71     9.4415     0.7485     0.0935 H
72 C72    -9.2434    -2.6523     0.3152 C
73 H73    -9.7059    -2.8145    -0.6640 H
74 H74    -9.3633    -3.5804     0.8904 H
75 H75    -9.8119    -1.8737     0.8352 H
76 N76     4.1115    -3.5233     0.9860 N
77 O77     4.3271    -4.7439     0.9923 O
78 O78     4.8294    -2.6910     1.5469 O
@<TRIPOS>BOND
1 1 7 Ar
2 1 9 Ar
3 1 50 1
4 2 12 Ar
5 2 14 Ar
6 2 24 1
7 3 17 Ar
8 3 19 Ar
9 3 40 1
10 4 5 Ar
11 4 8 1
12 4 22 Ar
13 5 6 Ar
14 5 27 1
15 6 7 Ar
16 6 76 1
17 7 8 Ar
18 8 28 1
19 9 10 Ar
20 9 13 1
21 10 11 2
22 10 29 1
23 11 12 Ar
24 11 30 1
25 12 13 1
26 13 31 1
27 14 15 1
28 14 18 Ar
29 15 16 2
30 15 32 1
31 16 17 1
32 16 33 1
33 17 18 1
34 19 20 Ar
35 19 23 Ar
36 20 21 Ar
37 20 34 1
38 21 22 Ar
39 21 35 1
40 22 23 Ar
41 23 36 1
42 24 25 Ar
43 24 37 Ar
44 25 38 1
45 25 62 Ar
46 26 60 Ar
47 26 62 Ar
48 26 64 1
49 37 39 1
50 37 60 Ar
51 40 41 Ar
52 40 42 Ar
53 41 43 Ar
54 41 44 1
55 42 45 Ar
56 42 46 1
57 43 47 Ar
58 43 48 1
59 45 47 Ar
60 45 49 1
61 47 72 1
62 50 51 Ar
63 50 52 Ar
64 51 53 Ar
65 51 54 1
66 52 55 Ar
67 52 56 1
68 53 57 Ar
69 53 58 1
70 55 57 Ar
71 55 59 1
72 57 68 1
73 60 61 1
74 62 63 1
75 64 65 1
76 64 66 1
77 64 67 1
78 68 69 1
79 68 70 1
80 68 71 1
81 72 73 1
82 72 74 1
83 72 75 1
84 76 77 Ar
85 76 78 Ar
