# F10_OH_2I_OPT
# Created by GaussView 6.0.16
#

#
#

@<TRIPOS>MOLECULE
Molecule Name
68 75
SMALL
NO_CHARGES


@<TRIPOS>ATOM
1 C1    -3.4281    -2.4534     0.2665 C
2 C2     0.0163     1.0673     0.0565 C
3 C3     3.4063    -2.4778    -0.0434 C
4 C4    -0.7050    -4.8201     0.3191 C
5 C5    -1.7335    -5.7043    -0.0742 C
6 C6    -2.9341    -4.9884    -0.1014 C
7 C7    -2.6617    -3.6435     0.2649 C
8 N8    -1.3103    -3.5964     0.5406 N
9 C9    -2.8470    -1.1733     0.2655 C
10 C10    -3.4846     0.1038     0.4118 C
11 C11    -2.5230     1.0849     0.3554 C
12 C12    -1.2451     0.4632     0.1625 C
13 N13    -1.4900    -0.8960     0.1320 N
14 C14     1.2598     0.3864    -0.0203 C
15 C15     2.5524     1.0489    -0.1349 C
16 C16     3.5010     0.0694    -0.1618 C
17 C17     2.7993    -1.1986    -0.0698 C
18 N18     1.4391    -0.9685     0.0111 N
19 C19     2.6603    -3.6669     0.1215 C
20 C20     2.9577    -5.0624     0.0415 C
21 C21     1.7577    -5.7620     0.1365 C
22 C22     0.7102    -4.8102     0.2848 C
23 N23     1.3102    -3.5807     0.3069 N
24 C24     4.8730    -2.5990    -0.2195 C
25 C25     5.6763    -3.2083     0.7504 C
26 C26     7.0507    -3.3450     0.5979 C
27 C27     7.6660    -2.8603    -0.5505 C
28 C28     6.8992    -2.2506    -1.5369 C
29 C29     5.5248    -2.1351    -1.3675 C
30 F30     5.1262    -3.6753     1.8838 F
31 F31     7.7865    -3.9281     1.5549 F
32 F32     8.9892    -2.9803    -0.7063 F
33 F33     7.4869    -1.7946    -2.6523 F
34 F34     4.8225    -1.5642    -2.3598 F
35 C35    -4.9103    -2.5618     0.2401 C
36 C36    -5.5897    -3.0619    -0.8732 C
37 C37    -6.9735    -3.1898    -0.9008 C
38 C38    -7.7212    -2.7950     0.2027 C
39 C39    -7.0782    -2.2852     1.3250 C
40 C40    -5.6922    -2.1831     1.3342 C
41 F41    -4.9028    -3.4437    -1.9632 F
42 F42    -7.5905    -3.6761    -1.9868 F
43 F43    -9.0542    -2.9046     0.1846 F
44 F44    -7.7955    -1.9093     2.3931 F
45 F45    -5.1065    -1.6976     2.4412 F
46 C46     0.0379     2.5619     0.0657 C
47 C47    -0.4370     3.3007    -1.0351 C
48 C48    -0.4165     4.6997    -1.0126 C
49 C49     0.0817     5.3745     0.1013 C
50 C50     0.5623     4.6591     1.1996 C
51 C51     0.5345     3.2643     1.1710 C
52 O52    -0.9013     2.6057    -2.1139 O
53 H53    -1.5896    -6.7315    -0.3813 H
54 H54    -3.8931    -5.3654    -0.4270 H
55 H55    -0.9304    -2.9162     1.1883 H
56 H56    -4.5448     0.2481     0.5639 H
57 H57    -2.6771     2.1494     0.4585 H
58 H58    -0.7988    -1.5344    -0.2364 H
59 H59     2.7102     2.1170    -0.1872 H
60 H60     4.5737     0.1978    -0.2193 H
61 H61     3.9433    -5.4867    -0.0930 H
62 H62     1.6263    -6.8352     0.1082 H
63 H63     0.8857    -2.6473     0.2496 H
64 H64     0.0933     6.4609     0.1053 H
65 H65     0.9002     2.6955     2.0212 H
66 H66    -1.1976     3.2415    -2.7902 H
67 I67     1.3130     5.6649     2.8833 I
68 I68    -1.1295     5.7677    -2.6742 I
@<TRIPOS>BOND
1 1 7 Ar
2 1 9 Ar
3 1 35 1
4 2 12 Ar
5 2 14 Ar
6 2 46 1
7 3 17 Ar
8 3 19 Ar
9 3 24 1
10 4 5 Ar
11 4 8 1
12 4 22 Ar
13 5 6 Ar
14 5 53 1
15 6 7 Ar
16 6 54 1
17 7 8 Ar
18 8 55 1
19 9 10 Ar
20 9 13 1
21 10 11 2
22 10 56 1
23 11 12 Ar
24 11 57 1
25 12 13 Ar
26 13 58 1
27 14 15 1
28 14 18 Ar
29 15 16 2
30 15 59 1
31 16 17 1
32 16 60 1
33 17 18 1
34 19 20 Ar
35 19 23 Ar
36 20 21 Ar
37 20 61 1
38 21 22 Ar
39 21 62 1
40 22 23 Ar
41 23 63 1
42 24 25 Ar
43 24 29 Ar
44 25 26 Ar
45 25 30 1
46 26 27 Ar
47 26 31 1
48 27 28 Ar
49 27 32 1
50 28 29 Ar
51 28 33 1
52 29 34 1
53 35 36 Ar
54 35 40 Ar
55 36 37 Ar
56 36 41 1
57 37 38 Ar
58 37 42 1
59 38 39 Ar
60 38 43 1
61 39 40 Ar
62 39 44 1
63 40 45 1
64 46 47 Ar
65 46 51 Ar
66 47 48 Ar
67 47 52 1
68 48 49 Ar
69 48 68 1
70 49 50 Ar
71 49 64 1
72 50 51 Ar
73 50 67 1
74 51 65 1
75 52 66 1
