# F10C
# Created by GaussView 6.0.16
#

#
#

@<TRIPOS>MOLECULE
Molecule Name
67 74
SMALL
NO_CHARGES


@<TRIPOS>ATOM
1 C1     3.4215    -0.7397    -0.0713 C
2 C2    -0.0053     2.8088    -0.0284 C
3 C3    -3.4168    -0.7174    -0.1097 C
4 C4     0.6849    -3.0879    -0.2654 C
5 C5     1.6901    -3.9822     0.1574 C
6 C6     2.8918    -3.2744     0.2501 C
7 C7     2.6456    -1.9229    -0.1044 C
8 N8     1.3054    -1.8616    -0.4327 N
9 C9     2.8495     0.5441    -0.0960 C
10 C10     3.5009     1.8137    -0.2257 C
11 C11     2.5476     2.8035    -0.2158 C
12 C12     1.2571     2.1962    -0.0678 C
13 N13     1.4888     0.8331    -0.0217 N
14 C14    -1.2547     2.1312    -0.0142 C
15 C15    -2.5479     2.7987     0.0606 C
16 C16    -3.4993     1.8250     0.0349 C
17 C17    -2.8014     0.5553    -0.0442 C
18 N18    -1.4377     0.7785    -0.0678 N
19 C19    -2.6748    -1.9109    -0.2481 C
20 C20    -2.9876    -3.3033    -0.1993 C
21 C21    -1.7913    -4.0125    -0.2315 C
22 C22    -0.7291    -3.0697    -0.3089 C
23 N23    -1.3160    -1.8351    -0.3533 N
24 C24    -4.8915    -0.8297    -0.0049 C
25 C25    -5.6508    -1.4263    -1.0182 C
26 C26    -7.0320    -1.5610    -0.9293 C
27 C27    -7.6980    -1.0877     0.1965 C
28 C28    -6.9752    -0.4899     1.2238 C
29 C29    -5.5931    -0.3764     1.1187 C
30 F30    -5.0512    -1.8839    -2.1278 F
31 F31    -7.7246    -2.1304    -1.9242 F
32 F32    -9.0258    -1.2071     0.2913 F
33 F33    -7.6116    -0.0454     2.3150 F
34 F34    -4.9360     0.1799     2.1464 F
35 C35     4.9007    -0.8606     0.0112 C
36 C36     5.5313    -1.3995     1.1366 C
37 C37     6.9127    -1.5419     1.2165 C
38 C38     7.7092    -1.1224     0.1561 C
39 C39     7.1162    -0.5731    -0.9761 C
40 C40     5.7315    -0.4580    -1.0392 C
41 F41     4.7995    -1.8071     2.1856 F
42 F42     7.4792    -2.0648     2.3111 F
43 F43     9.0380    -1.2456     0.2253 F
44 F44     7.8782    -0.1712    -2.0011 F
45 F45     5.1992     0.0668    -2.1537 F
46 C46    -0.0122     4.3017    -0.0215 C
47 C47     0.5793     5.0129     1.0337 C
48 C48     0.5841     6.4076     1.0384 C
49 C49    -0.0037     7.1141    -0.0120 C
50 C50    -0.5945     6.4174    -1.0679 C
51 C51    -0.5969     5.0232    -1.0737 C
52 H52     1.5296    -5.0135     0.4410 H
53 H53     3.8315    -3.6633     0.6140 H
54 H54     0.9559    -1.1652    -1.0790 H
55 H55     4.5660     1.9481    -0.3449 H
56 H56     2.7155     3.8643    -0.3278 H
57 H57     0.7778     0.2084     0.3333 H
58 H58    -2.7035     3.8654     0.1308 H
59 H59    -4.5721     1.9589     0.0568 H
60 H60    -3.9822    -3.7208    -0.1280 H
61 H61    -1.6733    -5.0872    -0.2093 H
62 H62    -0.8902    -0.9052    -0.2571 H
63 H63     1.0419     6.9412     1.8668 H
64 H64    -0.0014     8.2005    -0.0081 H
65 H65    -1.0488     6.9594    -1.8926 H
66 H66    -1.0464     4.4825    -1.9011 H
67 H67     1.0263     4.4640     1.8573 H
@<TRIPOS>BOND
1 1 7 Ar
2 1 9 Ar
3 1 35 1
4 2 12 Ar
5 2 14 Ar
6 2 46 1
7 3 17 Ar
8 3 19 Ar
9 3 24 1
10 4 5 Ar
11 4 8 1
12 4 22 Ar
13 5 6 Ar
14 5 52 1
15 6 7 Ar
16 6 53 1
17 7 8 Ar
18 8 54 1
19 9 10 Ar
20 9 13 1
21 10 11 2
22 10 55 1
23 11 12 Ar
24 11 56 1
25 12 13 1
26 13 57 1
27 14 15 1
28 14 18 Ar
29 15 16 2
30 15 58 1
31 16 17 1
32 16 59 1
33 17 18 1
34 19 20 Ar
35 19 23 Ar
36 20 21 Ar
37 20 60 1
38 21 22 Ar
39 21 61 1
40 22 23 Ar
41 23 62 1
42 24 25 Ar
43 24 29 Ar
44 25 26 Ar
45 25 30 1
46 26 27 Ar
47 26 31 1
48 27 28 Ar
49 27 32 1
50 28 29 Ar
51 28 33 1
52 29 34 1
53 35 36 Ar
54 35 40 Ar
55 36 37 Ar
56 36 41 1
57 37 38 Ar
58 37 42 1
59 38 39 Ar
60 38 43 1
61 39 40 Ar
62 39 44 1
63 40 45 1
64 46 47 Ar
65 46 51 Ar
66 47 48 Ar
67 47 67 1
68 48 49 Ar
69 48 63 1
70 49 50 Ar
71 49 64 1
72 50 51 Ar
73 50 65 1
74 51 66 1
