# F10C_OH3_P2OH_OPT
# Created by GaussView 6.0.16
#

#
#

@<TRIPOS>MOLECULE
Molecule Name
70 80
SMALL
NO_CHARGES


@<TRIPOS>ATOM
1 C1     3.3269    -0.8824    -0.0260 C
2 C2     0.0064     2.7265    -0.2004 C
3 C3    -3.3862    -0.8117    -0.0057 C
4 C4     0.6456    -3.2316     0.0087 C
5 C5     1.7129    -4.1580     0.0698 C
6 C6     2.8866    -3.4215     0.0513 C
7 C7     2.5405    -2.0384    -0.0145 C
8 N8     1.1697    -1.9594    -0.0701 N
9 C9     2.7408     0.3851    -0.0644 C
10 C10     3.4439     1.6300    -0.1053 C
11 C11     2.5248     2.6378    -0.1718 C
12 C12     1.2233     2.0443    -0.1530 C
13 N13     1.3701     0.6658    -0.0916 N
14 C14    -1.2239     2.0683    -0.1799 C
15 C15    -2.5129     2.6887    -0.1949 C
16 C16    -3.4525     1.6994    -0.1407 C
17 C17    -2.7741     0.4413    -0.0813 C
18 N18    -1.3983     0.6935    -0.1082 N
19 C19    -2.6243    -1.9828     0.0427 C
20 C20    -2.9992    -3.3593     0.0848 C
21 C21    -1.8410    -4.1202     0.0937 C
22 C22    -0.7544    -3.2150     0.0637 C
23 N23    -1.2515    -1.9297     0.0590 N
24 C24    -4.8660    -0.9096     0.0226 C
25 C25    -5.5755    -1.5420    -1.0036 C
26 C26    -6.9613    -1.6599    -0.9798 C
27 C27    -7.6786    -1.1278     0.0868 C
28 C28    -7.0044    -0.4885     1.1224 C
29 C29    -5.6175    -0.3942     1.0839 C
30 F30    -4.9218    -2.0561    -2.0546 F
31 F31    -7.6083    -2.2707    -1.9800 F
32 F32    -9.0105    -1.2302     0.1168 F
33 F33    -7.6915     0.0172     2.1541 F
34 F34    -5.0032     0.2159     2.1083 F
35 C35     4.8042    -1.0152     0.0040 C
36 C36     5.4620    -1.6039     1.0896 C
37 C37     6.8443    -1.7560     1.1233 C
38 C38     7.6127    -1.3053     0.0549 C
39 C39     6.9914    -0.7122    -1.0394 C
40 C40     5.6068    -0.5830    -1.0572 C
41 F41     4.7607    -2.0424     2.1444 F
42 F42     7.4386    -2.3212     2.1815 F
43 F43     8.9416    -1.4409     0.0801 F
44 F44     7.7263    -0.2838    -2.0732 F
45 F45     5.0467    -0.0212    -2.1389 F
46 C46     0.0214     4.2167    -0.2741 C
47 C47     0.5034     4.9661     0.8070 C
48 C48     0.5291     6.3616     0.7429 C
49 C49     0.0681     7.0220    -0.4011 C
50 C50    -0.4138     6.2743    -1.4719 C
51 C51    -0.4404     4.8795    -1.4186 C
52 H52     1.6122    -5.2330     0.1287 H
53 H53     3.8961    -3.8064     0.0822 H
54 H54     4.5196     1.7248    -0.0905 H
55 H55     2.7100     3.6997    -0.2306 H
56 H56    -2.6756     3.7549    -0.2398 H
57 H57    -4.5266     1.8140    -0.1469 H
58 H58    -4.0163    -3.7245     0.1042 H
59 H59    -1.7632    -5.1985     0.1117 H
60 H60    -0.7681     6.7852    -2.3627 H
61 H61    -0.8047     4.3020    -2.2618 H
62 H62     0.8510     4.4553     1.7017 H
63 O63     0.9895     7.1302     1.7719 O
64 H64     0.0946     8.1065    -0.4326 H
65 H65     1.2656     6.5500     2.5005 H
66 P66    -0.0268    -0.5502    -0.0552 P
67 O67     0.0673    -0.4275     1.6288 O
68 H68    -0.6719    -0.9142     2.0297 H
69 O69    -0.1191    -0.5455    -1.7428 O
70 H70     0.6250    -1.0521    -2.1085 H
@<TRIPOS>BOND
1 1 7 Ar
2 1 9 Ar
3 1 35 1
4 2 12 Ar
5 2 14 Ar
6 2 46 1
7 3 17 Ar
8 3 19 Ar
9 3 24 1
10 4 5 Ar
11 4 8 Ar
12 4 22 Ar
13 5 6 2
14 5 52 1
15 6 7 Ar
16 6 53 1
17 7 8 Ar
18 8 66 1
19 9 10 Ar
20 9 13 1
21 10 11 2
22 10 54 1
23 11 12 Ar
24 11 55 1
25 12 13 1
26 13 66 1
27 14 15 Ar
28 14 18 1
29 15 16 2
30 15 56 1
31 16 17 Ar
32 16 57 1
33 17 18 1
34 18 66 1
35 19 20 Ar
36 19 23 Ar
37 20 21 2
38 20 58 1
39 21 22 Ar
40 21 59 1
41 22 23 Ar
42 23 66 1
43 24 25 Ar
44 24 29 Ar
45 25 26 Ar
46 25 30 1
47 26 27 Ar
48 26 31 1
49 27 28 Ar
50 27 32 1
51 28 29 Ar
52 28 33 1
53 29 34 1
54 35 36 Ar
55 35 40 Ar
56 36 37 Ar
57 36 41 1
58 37 38 Ar
59 37 42 1
60 38 39 Ar
61 38 43 1
62 39 40 Ar
63 39 44 1
64 40 45 1
65 46 47 Ar
66 46 51 Ar
67 47 48 Ar
68 47 62 1
69 48 49 Ar
70 48 63 1
71 49 50 Ar
72 49 64 1
73 50 51 Ar
74 50 60 1
75 51 61 1
76 63 65 1
77 66 67 1
78 66 69 1
79 67 68 1
80 69 70 1
