# F10C_OH4
# Created by GaussView 6.0.16
#

#
#

@<TRIPOS>MOLECULE
Molecule Name
86 93
SMALL
NO_CHARGES


@<TRIPOS>ATOM
1 C1     3.3981    -0.8325    -0.1209 C
2 C2     0.0626     2.8069    -0.0533 C
3 C3    -3.4497    -0.6226    -0.2099 C
4 C4     0.5941    -3.1020    -0.3401 C
5 C5     1.5741    -4.0285     0.0702 C
6 C6     2.7959    -3.3545     0.1716 C
7 C7     2.5867    -1.9930    -0.1636 C
8 N8     1.2476    -1.8908    -0.4869 N
9 C9     2.8568     0.4640    -0.1310 C
10 C10     3.5409     1.7173    -0.2506 C
11 C11     2.6145     2.7320    -0.2364 C
12 C12     1.3071     2.1591    -0.0944 C
13 N13     1.5025     0.7895    -0.0568 N
14 C14    -1.2060     2.1626    -0.0550 C
15 C15    -2.4807     2.8649     0.0110 C
16 C16    -3.4592     1.9189    -0.0425 C
17 C17    -2.7975     0.6310    -0.1254 C
18 N18    -1.4263     0.8169    -0.1269 N
19 C19    -2.7348    -1.8342    -0.3490 C
20 C20    -3.0849    -3.2170    -0.3182 C
21 C21    -1.9072    -3.9588    -0.3444 C
22 C22    -0.8196    -3.0449    -0.3971 C
23 N23    -1.3724    -1.7946    -0.4356 N
24 C24    -4.9266    -0.6965    -0.1292 C
25 C25    -5.6960    -1.2858    -1.1417 C
26 C26    -7.0729    -1.3819    -1.0589 C
27 C27    -7.8035    -0.8876     0.0369 C
28 C28    -7.0356    -0.2914     1.0487 C
29 C29    -5.6506    -0.2194     0.9684 C
30 F30    -5.0969    -1.7821    -2.2394 F
31 F31    -7.7621    -1.9701    -2.0651 F
32 F32    -7.6357     0.2196     2.1491 F
33 F33    -5.0048     0.3384     2.0078 F
34 C34     4.8740    -0.9935    -0.0641 C
35 C35     5.5245    -1.5726     1.0273 C
36 C36     6.9003    -1.7621     1.0751 C
37 C37     7.7372    -1.3452     0.0291 C
38 C38     7.0819    -0.7518    -1.0648 C
39 C39     5.7084    -0.5954    -1.1153 C
40 F40     4.8063    -1.9958     2.0853 F
41 F41     7.4224    -2.3606     2.1706 F
42 F42     7.8395    -0.3252    -2.1022 F
43 F43     5.1799    -0.0202    -2.2112 F
44 C44     0.0977     4.2981    -0.0269 C
45 C45     0.7112     4.9843     1.0306 C
46 C46     0.7607     6.3765     1.0587 C
47 C47     0.1880     7.1141     0.0181 C
48 C48    -0.4277     6.4487    -1.0476 C
49 C49    -0.4668     5.0590    -1.0643 C
50 H50     1.3857    -5.0592     0.3387 H
51 H51     3.7255    -3.7719     0.5297 H
52 H52     0.9154    -1.1738    -1.1192 H
53 H53     4.6093     1.8218    -0.3689 H
54 H54     2.8104     3.7883    -0.3443 H
55 H55     0.7770     0.1829     0.3002 H
56 H56    -2.6078     3.9346     0.0928 H
57 H57    -4.5281     2.0813    -0.0356 H
58 H58    -4.0913    -3.6076    -0.2637 H
59 H59    -1.8186    -5.0366    -0.3323 H
60 H60    -0.9238    -0.8769    -0.3235 H
61 H61     1.2361     6.8890     1.8927 H
62 H62    -0.8612     7.0316    -1.8540 H
63 H63    -0.9355     4.5488    -1.9001 H
64 H64     1.1478     4.4190     1.8485 H
65 H65     0.6540     8.8068     0.7810 H
66 O66     0.2001     8.4784    -0.0124 O
67 N67     9.1032    -1.5301    -0.0188 N
68 N68    -9.1796    -0.9620     0.0185 N
69 H69     9.5311    -1.0104    -0.7791 H
70 H70    -9.5195    -1.5873    -0.7055 H
71 C71     9.9490    -1.4794     1.1749 C
72 C72    -9.9892    -1.0877     1.2306 C
73 H73     9.7909    -0.5501     1.7429 H
74 H74     9.7266    -2.3203     1.8337 H
75 H75    -9.9171    -0.1801     1.8323 H
76 H76    -9.6613    -1.9352     1.8513 H
77 C77    11.3968    -1.5622     0.7282 C
78 C78   -11.4331    -1.2947     0.8109 C
79 H79   -11.7840    -0.4131     0.2556 H
80 H80   -12.0589    -1.4119     1.7072 H
81 H81    11.5694    -2.5216     0.2198 H
82 H82    12.0537    -1.5131     1.6086 H
83 O83    11.6302    -0.4660    -0.1576 O
84 H84    12.4725    -0.6209    -0.6121 H
85 O85   -11.4725    -2.4639    -0.0089 O
86 H86   -12.3350    -2.4931    -0.4506 H
@<TRIPOS>BOND
1 1 7 Ar
2 1 9 Ar
3 1 34 1
4 2 12 Ar
5 2 14 Ar
6 2 44 1
7 3 17 Ar
8 3 19 Ar
9 3 24 1
10 4 5 Ar
11 4 8 1
12 4 22 Ar
13 5 6 Ar
14 5 50 1
15 6 7 Ar
16 6 51 1
17 7 8 Ar
18 8 52 1
19 9 10 Ar
20 9 13 1
21 10 11 2
22 10 53 1
23 11 12 Ar
24 11 54 1
25 12 13 1
26 13 55 1
27 14 15 1
28 14 18 Ar
29 15 16 2
30 15 56 1
31 16 17 1
32 16 57 1
33 17 18 1
34 19 20 Ar
35 19 23 Ar
36 20 21 Ar
37 20 58 1
38 21 22 Ar
39 21 59 1
40 22 23 Ar
41 23 60 1
42 24 25 Ar
43 24 29 Ar
44 25 26 2
45 25 30 1
46 26 27 Ar
47 26 31 1
48 27 28 Ar
49 27 68 Ar
50 28 29 Ar
51 28 32 1
52 29 33 1
53 34 35 Ar
54 34 39 Ar
55 35 36 Ar
56 35 40 1
57 36 37 Ar
58 36 41 1
59 37 38 Ar
60 37 67 Ar
61 38 39 2
62 38 42 1
63 39 43 1
64 44 45 Ar
65 44 49 Ar
66 45 46 Ar
67 45 64 1
68 46 47 Ar
69 46 61 1
70 47 48 Ar
71 47 66 1
72 48 49 Ar
73 48 62 1
74 49 63 1
75 65 66 1
76 67 69 1
77 67 71 1
78 68 70 1
79 68 72 1
80 71 73 1
81 71 74 1
82 71 77 1
83 72 75 1
84 72 76 1
85 72 78 1
86 77 81 1
87 77 82 1
88 77 83 1
89 78 79 1
90 78 80 1
91 78 85 1
92 83 84 1
93 85 86 1
