# F10C_OH4_OPT
# Created by GaussView 6.0.16
#

#
#

@<TRIPOS>MOLECULE
Molecule Name
68 75
SMALL
NO_CHARGES


@<TRIPOS>ATOM
1 C1     3.4222    -0.9268    -0.0698 C
2 C2    -0.0061     2.6230    -0.0331 C
3 C3    -3.4165    -0.9062    -0.1118 C
4 C4     0.6857    -3.2753    -0.2626 C
5 C5     1.6909    -4.1694     0.1612 C
6 C6     2.8923    -3.4613     0.2552 C
7 C7     2.6461    -2.1098    -0.0998 C
8 N8     1.3062    -2.0487    -0.4289 N
9 C9     2.8498     0.3572    -0.0989 C
10 C10     3.4994     1.6258    -0.2439 C
11 C11     2.5451     2.6150    -0.2385 C
12 C12     1.2561     2.0087    -0.0765 C
13 N13     1.4895     0.6461    -0.0188 N
14 C14    -1.2549     1.9433    -0.0141 C
15 C15    -2.5481     2.6097     0.0685 C
16 C16    -3.4995     1.6358     0.0402 C
17 C17    -2.8013     0.3669    -0.0463 C
18 N18    -1.4378     0.5906    -0.0732 N
19 C19    -2.6741    -2.0993    -0.2504 C
20 C20    -2.9865    -3.4918    -0.1997 C
21 C21    -1.7899    -4.2006    -0.2302 C
22 C22    -0.7280    -3.2574    -0.3082 C
23 N23    -1.3153    -2.0231    -0.3553 N
24 C24    -4.8909    -1.0193    -0.0053 C
25 C25    -5.6510    -1.6152    -1.0186 C
26 C26    -7.0321    -1.7507    -0.9286 C
27 C27    -7.6972    -1.2790     0.1984 C
28 C28    -6.9737    -0.6822     1.2257 C
29 C29    -5.5918    -0.5680     1.1194 C
30 F30    -5.0522    -2.0713    -2.1292 F
31 F31    -7.7253    -2.3194    -1.9235 F
32 F32    -9.0250    -1.3992     0.2943 F
33 F33    -7.6093    -0.2393     2.3182 F
34 F34    -4.9340    -0.0129     2.1475 F
35 C35     4.9013    -1.0482     0.0121 C
36 C36     5.5318    -1.5845     1.1389 C
37 C37     6.9130    -1.7281     1.2190 C
38 C38     7.7099    -1.3124     0.1573 C
39 C39     7.1172    -0.7658    -0.9763 C
40 C40     5.7325    -0.6497    -1.0396 C
41 F41     4.7999    -1.9883     2.1894 F
42 F42     7.4792    -2.2484     2.3152 F
43 F43     9.0386    -1.4366     0.2268 F
44 F44     7.8794    -0.3677    -2.0026 F
45 F45     5.2009    -0.1282    -2.1559 F
46 C46    -0.0136     4.1142    -0.0262 C
47 C47     0.5971     4.8317     1.0120 C
48 C48     0.6019     6.2249     1.0229 C
49 C49    -0.0128     6.9310    -0.0160 C
50 C50    -0.6255     6.2333    -1.0628 C
51 C51    -0.6207     4.8433    -1.0624 C
52 H52     1.5305    -5.2008     0.4442 H
53 H53     3.8319    -3.8501     0.6195 H
54 H54     0.9569    -1.3517    -1.0745 H
55 H55     4.5634     1.7596    -0.3731 H
56 H56     2.7111     3.6744    -0.3646 H
57 H57     0.7802     0.0224     0.3412 H
58 H58    -2.7042     3.6757     0.1460 H
59 H59    -4.5722     1.7693     0.0665 H
60 H60    -3.9810    -3.9096    -0.1281 H
61 H61    -1.6715    -5.2752    -0.2059 H
62 H62    -0.8900    -1.0925    -0.2613 H
63 H63     1.0754     6.7624     1.8419 H
64 H64    -1.0917     6.7921    -1.8679 H
65 H65    -1.0880     4.3081    -1.8833 H
66 H66     1.0648     4.2906     1.8290 H
67 H67     0.4086     8.6478     0.7191 H
68 O68    -0.0451     8.2936    -0.0634 O
@<TRIPOS>BOND
1 1 7 Ar
2 1 9 Ar
3 1 35 1
4 2 12 Ar
5 2 14 Ar
6 2 46 1
7 3 17 Ar
8 3 19 Ar
9 3 24 1
10 4 5 Ar
11 4 8 1
12 4 22 Ar
13 5 6 Ar
14 5 52 1
15 6 7 Ar
16 6 53 1
17 7 8 Ar
18 8 54 1
19 9 10 Ar
20 9 13 1
21 10 11 2
22 10 55 1
23 11 12 Ar
24 11 56 1
25 12 13 1
26 13 57 1
27 14 15 1
28 14 18 Ar
29 15 16 2
30 15 58 1
31 16 17 1
32 16 59 1
33 17 18 1
34 19 20 Ar
35 19 23 Ar
36 20 21 Ar
37 20 60 1
38 21 22 Ar
39 21 61 1
40 22 23 Ar
41 23 62 1
42 24 25 Ar
43 24 29 Ar
44 25 26 Ar
45 25 30 1
46 26 27 Ar
47 26 31 1
48 27 28 Ar
49 27 32 1
50 28 29 Ar
51 28 33 1
52 29 34 1
53 35 36 Ar
54 35 40 Ar
55 36 37 Ar
56 36 41 1
57 37 38 Ar
58 37 42 1
59 38 39 Ar
60 38 43 1
61 39 40 Ar
62 39 44 1
63 40 45 1
64 46 47 Ar
65 46 51 Ar
66 47 48 Ar
67 47 66 1
68 48 49 Ar
69 48 63 1
70 49 50 Ar
71 49 68 1
72 50 51 Ar
73 50 64 1
74 51 65 1
75 67 68 1
