# F10CGaO3_OPT
# Created by GaussView 6.0.16
#

#
#

@<TRIPOS>MOLECULE
Molecule Name
87 99
SMALL
NO_CHARGES


@<TRIPOS>ATOM
1 C1     1.8065    -2.9821    -0.1758 C
2 C2    -0.0085     1.5663    -0.8124 C
3 C3    -4.4312    -0.4711     0.0173 C
4 C4    -1.5189    -4.1915     0.4010 C
5 C5    -0.8383    -5.4352     0.5464 C
6 C6     0.5181    -5.1915     0.3593 C
7 C7     0.6807    -3.7889     0.0991 C
8 N8    -0.5693    -3.2348     0.1377 N
9 C9     1.7420    -1.5928    -0.4310 C
10 C10     2.8453    -0.7019    -0.6543 C
11 C11     2.3477     0.5663    -0.8297 C
12 C12     0.9176     0.5029    -0.7255 C
13 N13     0.5784    -0.8223    -0.4807 N
14 C14    -1.4058     1.4421    -0.6443 C
15 C15    -2.4059     2.4625    -0.7791 C
16 C16    -3.6318     1.8892    -0.5434 C
17 C17    -3.4355     0.4953    -0.2603 C
18 N18    -2.0621     0.2570    -0.3345 N
19 C19    -4.1649    -1.8418     0.2315 C
20 C20    -5.0009    -2.9661     0.5463 C
21 C21    -4.1834    -4.0846     0.6646 C
22 C22    -2.8437    -3.6610     0.4281 C
23 N23    -2.8820    -2.3123     0.1686 N
24 C24    -5.8445    -0.0211     0.0930 C
25 C25    -6.8207    -0.5297    -0.7713 C
26 C26    -8.1530    -0.1365    -0.6968 C
27 C27    -8.5424     0.7996     0.2559 C
28 C28    -7.5969     1.3290     1.1286 C
29 C29    -6.2730     0.9115     1.0444 C
30 F30    -6.4864    -1.4206    -1.7161 F
31 F31    -9.0590    -0.6426    -1.5429 F
32 F32    -9.8185     1.1888     0.3323 F
33 F33    -7.9691     2.2248     2.0520 F
34 F34    -5.3992     1.4310     1.9200 F
35 C35     3.1431    -3.6289    -0.1866 C
36 C36     3.6679    -4.2379     0.9580 C
37 C37     4.9157    -4.8522     0.9629 C
38 C38     5.6832    -4.8598    -0.1975 C
39 C39     5.1928    -4.2602    -1.3533 C
40 C40     3.9377    -3.6611    -1.3378 C
41 F41     2.9686    -4.2349     2.1036 F
42 F42     5.3870    -5.4240     2.0788 F
43 F43     6.8849    -5.4443    -0.2026 F
44 F44     5.9243    -4.2760    -2.4741 F
45 F45     3.4948    -3.1079    -2.4758 F
46 C46     0.5436     2.9275    -1.0599 C
47 C47     0.3760     3.9471    -0.1143 C
48 C48     0.9352     5.2106    -0.2942 C
49 C49     1.6983     5.4751    -1.4365 C
50 C50     1.8521     4.4746    -2.4054 C
51 C51     1.2820     3.2216    -2.2178 C
52 H52    -1.2992    -6.3912     0.7574 H
53 H53     1.3133    -5.9240     0.3939 H
54 H54     3.8891    -0.9785    -0.6482 H
55 H55     2.9167     1.4652    -1.0094 H
56 H56    -2.2084     3.4929    -1.0358 H
57 H57    -4.5920     2.3836    -0.5825 H
58 H58    -6.0746    -2.9390     0.6733 H
59 H59    -4.4993    -5.0926     0.8992 H
60 H60     0.7985     5.9566     0.4776 H
61 H61     2.4345     4.6968    -3.2938 H
62 H62     1.4165     2.4543    -2.9741 H
63 H63    -0.1841     3.7426     0.7932 H
64 O64     2.3045     6.6675    -1.7201 O
65 C65     2.5828     7.6065    -0.6812 C
66 H66     2.6291     8.5766    -1.1836 H
67 H67     1.7682     7.6524     0.0479 H
68 C68     3.9294     7.3287     0.0040 C
69 H69     4.7139     7.3700    -0.7588 H
70 H70     4.1110     8.1526     0.7063 H
71 C71     3.9833     6.0046     0.7274 C
72 C72     4.5719     4.8968     0.1192 C
73 C73     3.3889     5.8563     1.9964 C
74 C74     3.3638     4.6242     2.6281 C
75 C75     3.9441     3.4954     2.0195 C
76 H76     2.9372     6.7193     2.4779 H
77 H77     2.8976     4.5130     3.6032 H
78 H78     5.0357     4.9742    -0.8583 H
79 C79     4.5529     3.6612     0.7627 C
80 O80     5.1533     2.6126     0.1243 O
81 C81     5.2130     1.3348     0.6696 C
82 C82     4.5605     1.1502     1.9561 C
83 H83     4.5875     0.1454     2.3601 H
84 C84     3.9612     2.1795     2.5989 C
85 O85     5.7953     0.4830     0.0308 O
86 Ga86    -1.1976    -1.4369    -0.1503 Ga
87 H87     3.4806     2.0264     3.5617 H
@<TRIPOS>BOND
1 1 7 Ar
2 1 9 Ar
3 1 35 1
4 2 12 Ar
5 2 14 Ar
6 2 46 1
7 3 17 Ar
8 3 19 Ar
9 3 24 1
10 4 5 Ar
11 4 8 Ar
12 4 22 Ar
13 5 6 Ar
14 5 52 1
15 6 7 Ar
16 6 53 1
17 7 8 Ar
18 8 86 1
19 9 10 Ar
20 9 13 1
21 10 11 2
22 10 54 1
23 11 12 Ar
24 11 55 1
25 12 13 1
26 13 86 1
27 14 15 Ar
28 14 18 1
29 15 16 2
30 15 56 1
31 16 17 Ar
32 16 57 1
33 17 18 1
34 18 86 1
35 19 20 Ar
36 19 23 Ar
37 20 21 Ar
38 20 58 1
39 21 22 Ar
40 21 59 1
41 22 23 Ar
42 23 86 1
43 24 25 Ar
44 24 29 Ar
45 25 26 Ar
46 25 30 1
47 26 27 Ar
48 26 31 1
49 27 28 Ar
50 27 32 1
51 28 29 Ar
52 28 33 1
53 29 34 1
54 35 36 Ar
55 35 40 Ar
56 36 37 Ar
57 36 41 1
58 37 38 Ar
59 37 42 1
60 38 39 Ar
61 38 43 1
62 39 40 Ar
63 39 44 1
64 40 45 1
65 46 47 Ar
66 46 51 Ar
67 47 48 Ar
68 47 63 1
69 48 49 Ar
70 48 60 1
71 49 50 Ar
72 49 64 1
73 50 51 Ar
74 50 61 1
75 51 62 1
76 64 65 1
77 65 66 1
78 65 67 1
79 65 68 1
80 68 69 1
81 68 70 1
82 68 71 1
83 71 72 Ar
84 71 73 Ar
85 72 78 1
86 72 79 Ar
87 73 74 2
88 73 76 1
89 74 75 Ar
90 74 77 1
91 75 79 Ar
92 75 84 Ar
93 79 80 1
94 80 81 1
95 81 82 1
96 81 85 2
97 82 83 1
98 82 84 2
99 84 87 1
