# F10CFe_OH2_OPT
# Created by GaussView 6.0.16
#

#
#

@<TRIPOS>MOLECULE
Molecule Name
77 87
SMALL
NO_CHARGES


@<TRIPOS>ATOM
1 C1     3.3599    -0.7297    -0.4601 C
2 C2    -0.0177     2.8577    -0.4560 C
3 C3    -3.3674    -0.7581    -0.5081 C
4 C4     0.7218    -3.1543    -0.5495 C
5 C5     1.8125    -4.0643    -0.6760 C
6 C6     2.9833    -3.3131    -0.6325 C
7 C7     2.6100    -1.9329    -0.4862 C
8 N8     1.2500    -1.8961    -0.4184 N
9 C9     2.7858     0.5625    -0.4561 C
10 C10     3.4767     1.8260    -0.4783 C
11 C11     2.5383     2.8276    -0.4856 C
12 C12     1.2385     2.2130    -0.4545 C
13 N13     1.4242     0.8440    -0.4328 N
14 C14    -1.2715     2.2073    -0.4767 C
15 C15    -2.5780     2.8082    -0.5193 C
16 C16    -3.5058     1.7953    -0.5322 C
17 C17    -2.8031     0.5395    -0.4947 C
18 N18    -1.4449     0.8357    -0.4528 N
19 C19    -2.6089    -1.9546    -0.5480 C
20 C20    -2.9683    -3.3424    -0.6580 C
21 C21    -1.7904    -4.0821    -0.6846 C
22 C22    -0.7088    -3.1582    -0.5783 C
23 N23    -1.2486    -1.9015    -0.4946 N
24 C24    -4.8460    -0.8690    -0.4442 C
25 C25    -5.5974    -1.4432    -1.4740 C
26 C26    -6.9815    -1.5669    -1.3988 C
27 C27    -7.6545    -1.1012    -0.2738 C
28 C28    -6.9377    -0.5227     0.7694 C
29 C29    -5.5542    -0.4216     0.6766 C
30 F30    -4.9893    -1.8911    -2.5818 F
31 F31    -7.6707    -2.1178    -2.4064 F
32 F32    -8.9849    -1.2098    -0.1935 F
33 F33    -7.5820    -0.0838     1.8591 F
34 F34    -4.8963     0.1176     1.7185 F
35 C35     4.8383    -0.8535    -0.4209 C
36 C36     5.4699    -1.4713     0.6643 C
37 C37     6.8495    -1.6317     0.7280 C
38 C38     7.6434    -1.1594    -0.3128 C
39 C39     7.0494    -0.5341    -1.4045 C
40 C40     5.6656    -0.3947    -1.4507 C
41 F41     4.7401    -1.9184     1.7013 F
42 F42     7.4190    -2.2227     1.7872 F
43 F43     8.9718    -1.3032    -0.2615 F
44 F44     7.8114    -0.0834    -2.4096 F
45 F45     5.1344     0.1992    -2.5289 F
46 C46    -0.0230     4.3512    -0.4622 C
47 C47     0.3218     5.0786     0.6927 C
48 C48     0.3137     6.4771     0.6788 C
49 C49    -0.0437     7.1651    -0.4803 C
50 C50    -0.3945     6.4612    -1.6323 C
51 C51    -0.3792     5.0658    -1.6120 C
52 H52     1.7377    -5.1367    -0.8016 H
53 H53     3.9934    -3.6898    -0.7245 H
54 H54     4.5505     1.9476    -0.5000 H
55 H55     2.7192     3.8925    -0.5205 H
56 H56    -2.7710     3.8710    -0.5513 H
57 H57    -4.5803     1.9039    -0.5870 H
58 H58    -3.9742    -3.7340    -0.7300 H
59 H59    -1.7051    -5.1573    -0.7746 H
60 H60     0.5812     7.0239     1.5810 H
61 H61    -0.0466     8.2515    -0.4771 H
62 H62    -0.6708     6.9906    -2.5390 H
63 H63    -0.6426     4.5045    -2.5037 H
64 O64     0.6519     4.3713     1.8132 O
65 H65     0.8665     4.9983     2.5234 H
66 Ga66    -0.0100    -0.4295    -0.1384 Ga
67 C67    -1.1810    -0.2129     2.6682 C
68 C68    -1.2338    -0.2391     4.0566 C
69 C69    -0.0681    -0.5217     4.7682 C
70 C70     1.1116    -0.7710     4.0671 C
71 C71     1.0864    -0.7295     2.6785 C
72 N72    -0.0407    -0.4548     1.9979 N
73 H73    -0.0791    -0.5487     5.8536 H
74 H74    -2.0592     0.0002     2.0689 H
75 H75    -2.1723    -0.0414     4.5627 H
76 H76     2.0394    -0.9954     4.5817 H
77 H77     1.9747    -0.9207     2.0865 H
@<TRIPOS>BOND
1 1 7 Ar
2 1 9 Ar
3 1 35 1
4 2 12 Ar
5 2 14 Ar
6 2 46 1
7 3 17 Ar
8 3 19 Ar
9 3 24 1
10 4 5 Ar
11 4 8 Ar
12 4 22 Ar
13 5 6 Ar
14 5 52 1
15 6 7 Ar
16 6 53 1
17 7 8 Ar
18 8 66 1
19 9 10 Ar
20 9 13 1
21 10 11 2
22 10 54 1
23 11 12 Ar
24 11 55 1
25 12 13 Ar
26 13 66 1
27 14 15 Ar
28 14 18 1
29 15 16 2
30 15 56 1
31 16 17 Ar
32 16 57 1
33 17 18 1
34 18 66 1
35 19 20 Ar
36 19 23 Ar
37 20 21 Ar
38 20 58 1
39 21 22 Ar
40 21 59 1
41 22 23 Ar
42 23 66 1
43 24 25 Ar
44 24 29 Ar
45 25 26 Ar
46 25 30 1
47 26 27 Ar
48 26 31 1
49 27 28 Ar
50 27 32 1
51 28 29 Ar
52 28 33 1
53 29 34 1
54 35 36 Ar
55 35 40 Ar
56 36 37 Ar
57 36 41 1
58 37 38 Ar
59 37 42 1
60 38 39 Ar
61 38 43 1
62 39 40 Ar
63 39 44 1
64 40 45 1
65 46 47 Ar
66 46 51 Ar
67 47 48 Ar
68 47 64 1
69 48 49 Ar
70 48 60 1
71 49 50 Ar
72 49 61 1
73 50 51 Ar
74 50 62 1
75 51 63 1
76 64 65 1
77 67 68 Ar
78 67 72 Ar
79 67 74 1
80 68 69 Ar
81 68 75 1
82 69 70 Ar
83 69 73 1
84 70 71 Ar
85 70 76 1
86 71 72 Ar
87 71 77 1
