# F10CFe_OH2_OPT
# Created by GaussView 6.0.16
#

#
#

@<TRIPOS>MOLECULE
Molecule Name
77 87
SMALL
NO_CHARGES


@<TRIPOS>ATOM
1 C1     3.3432    -0.8138    -0.4504 C
2 C2    -0.0005     2.8123    -0.4892 C
3 C3    -3.3811    -0.7825    -0.4984 C
4 C4     0.6843    -3.2142    -0.5287 C
5 C5     1.7673    -4.1353    -0.6427 C
6 C6     2.9444    -3.3946    -0.6018 C
7 C7     2.5829    -2.0096    -0.4698 C
8 N8     1.2234    -1.9594    -0.4081 N
9 C9     2.7816     0.4843    -0.4584 C
10 C10     3.4872     1.7372    -0.5065 C
11 C11     2.5618     2.7508    -0.5293 C
12 C12     1.2525     2.1544    -0.4746 C
13 N13     1.4232     0.7828    -0.4305 N
14 C14    -1.2615     2.1689    -0.5020 C
15 C15    -2.5658     2.7766    -0.5254 C
16 C16    -3.4998     1.7697    -0.5275 C
17 C17    -2.8052     0.5105    -0.4979 C
18 N18    -1.4442     0.7980    -0.4728 N
19 C19    -2.6346    -1.9856    -0.5343 C
20 C20    -3.0070    -3.3716    -0.6264 C
21 C21    -1.8360    -4.1216    -0.6498 C
22 C22    -0.7456    -3.2057    -0.5593 C
23 N23    -1.2739    -1.9435    -0.4896 N
24 C24    -4.8601    -0.8800    -0.4208 C
25 C25    -5.6251    -1.4505    -1.4425 C
26 C26    -7.0095    -1.5622    -1.3549 C
27 C27    -7.6685    -1.0878    -0.2251 C
28 C28    -6.9376    -0.5134     0.8106 C
29 C29    -5.5542    -0.4245     0.7054 C
30 F30    -5.0298    -1.9065    -2.5539 F
31 F31    -7.7122    -2.1098    -2.3548 F
32 F32    -8.9988    -1.1846    -0.1328 F
33 F33    -7.5685    -0.0668     1.9049 F
34 F34    -4.8821     0.1113     1.7402 F
35 C35     4.8205    -0.9513    -0.4050 C
36 C36     5.4413    -1.5587     0.6922 C
37 C37     6.8188    -1.7317     0.7644 C
38 C38     7.6216    -1.2834    -0.2803 C
39 C39     7.0384    -0.6691    -1.3840 C
40 C40     5.6563    -0.5170    -1.4384 C
41 F41     4.7022    -1.9829     1.7322 F
42 F42     7.3780    -2.3123     1.8346 F
43 F43     8.9481    -1.4396    -0.2212 F
44 F44     7.8090    -0.2411    -2.3924 F
45 F45     5.1352     0.0661    -2.5274 F
46 C46     0.0087     4.3046    -0.5158 C
47 C47     0.5772     5.0231     0.5423 C
48 C48     0.5948     6.4208     0.5209 C
49 C49     0.0359     7.1149    -0.5567 C
50 C50    -0.5316     6.3988    -1.6111 C
51 C51    -0.5464     5.0057    -1.5998 C
52 H52     1.6829    -5.2080    -0.7581 H
53 H53     3.9515    -3.7813    -0.6860 H
54 H54     4.5620     1.8459    -0.5389 H
55 H55     2.7599     3.8108    -0.5915 H
56 H56    -2.7564     3.8395    -0.5472 H
57 H57    -4.5741     1.8860    -0.5663 H
58 H58    -4.0167    -3.7549    -0.6879 H
59 H59    -1.7604    -5.1985    -0.7265 H
60 H60     0.0460     8.2027    -0.5697 H
61 H61    -0.9584     6.9370    -2.4527 H
62 H62    -0.9734     4.4541    -2.4306 H
63 Ga63    -0.0233    -0.4793    -0.1437 Ga
64 C64    -1.2078    -0.2498     2.6602 C
65 C65    -1.2648    -0.2689     4.0486 C
66 C66    -0.1010    -0.5472     4.7653 C
67 C67     1.0809    -0.8001     4.0689 C
68 C68     1.0600    -0.7650     2.6801 C
69 N69    -0.0649    -0.4933     1.9944 N
70 H70    -0.1152    -0.5680     5.8508 H
71 H71    -2.0849    -0.0411     2.0577 H
72 H72    -2.2048    -0.0691     4.5508 H
73 H73     2.0071    -1.0218     4.5876 H
74 H74     1.9501    -0.9598     2.0920 H
75 H75     1.0035     4.5045     1.3943 H
76 O76     1.1663     7.0552     1.5867 O
77 H77     1.1043     8.0151     1.4515 H
@<TRIPOS>BOND
1 1 7 Ar
2 1 9 Ar
3 1 35 1
4 2 12 Ar
5 2 14 Ar
6 2 46 1
7 3 17 Ar
8 3 19 Ar
9 3 24 1
10 4 5 Ar
11 4 8 Ar
12 4 22 Ar
13 5 6 Ar
14 5 52 1
15 6 7 Ar
16 6 53 1
17 7 8 Ar
18 8 63 1
19 9 10 Ar
20 9 13 1
21 10 11 2
22 10 54 1
23 11 12 Ar
24 11 55 1
25 12 13 1
26 13 63 1
27 14 15 Ar
28 14 18 1
29 15 16 2
30 15 56 1
31 16 17 Ar
32 16 57 1
33 17 18 1
34 18 63 1
35 19 20 Ar
36 19 23 Ar
37 20 21 Ar
38 20 58 1
39 21 22 Ar
40 21 59 1
41 22 23 Ar
42 23 63 1
43 24 25 Ar
44 24 29 Ar
45 25 26 Ar
46 25 30 1
47 26 27 Ar
48 26 31 1
49 27 28 Ar
50 27 32 1
51 28 29 Ar
52 28 33 1
53 29 34 1
54 35 36 Ar
55 35 40 Ar
56 36 37 Ar
57 36 41 1
58 37 38 Ar
59 37 42 1
60 38 39 Ar
61 38 43 1
62 39 40 Ar
63 39 44 1
64 40 45 1
65 46 47 Ar
66 46 51 Ar
67 47 48 Ar
68 47 75 1
69 48 49 Ar
70 48 76 1
71 49 50 Ar
72 49 60 1
73 50 51 Ar
74 50 61 1
75 51 62 1
76 64 65 Ar
77 64 69 Ar
78 64 71 1
79 65 66 Ar
80 65 72 1
81 66 67 Ar
82 66 70 1
83 67 68 Ar
84 67 73 1
85 68 69 Ar
86 68 74 1
87 76 77 1
