# 5_H3_OPT
# Created by GaussView 6.0.16
#

#
#

@<TRIPOS>MOLECULE
Molecule Name
103 110
SMALL
NO_CHARGES


@<TRIPOS>ATOM
1 C1    -3.4333    -1.4498    -0.2510 C
2 C2    -0.0049     2.0593    -0.0339 C
3 C3     3.4356    -1.4899    -0.0848 C
4 C4    -0.7349    -3.7623    -0.6254 C
5 C5    -1.7800    -4.7186    -0.5113 C
6 C6    -2.9814    -4.0240    -0.4390 C
7 C7    -2.6880    -2.6259    -0.5054 C
8 N8    -1.3344    -2.5346    -0.6799 N
9 C9    -2.8122    -0.1825    -0.1079 C
10 C10    -3.5037     1.0831     0.0527 C
11 C11    -2.5476     2.0532     0.1083 C
12 C12    -1.2597     1.3884    -0.0297 C
13 N13    -1.4479     0.0423    -0.1492 N
14 C14     1.2618     1.4478    -0.0696 C
15 C15     2.5406     2.0512    -0.3028 C
16 C16     3.4983     1.0639    -0.3110 C
17 C17     2.8631    -0.1985    -0.0841 C
18 N18     1.5056     0.0925     0.0435 N
19 C19     2.6343    -2.6558    -0.2129 C
20 C20     2.8281    -4.0132     0.1584 C
21 C21     1.6303    -4.7015    -0.0363 C
22 C22     0.6762    -3.7846    -0.5287 C
23 N23     1.3292    -2.5749    -0.6485 N
24 H24    -1.6454    -5.7907    -0.4753 H
25 H25    -4.5751     1.2188     0.0984 H
26 H26    -2.7043     3.1136     0.2441 H
27 H27     2.6984     3.1020    -0.4951 H
28 H28     4.5509     1.1890    -0.5192 H
29 H29     3.7289    -4.4138     0.6002 H
30 H30     1.4288    -5.7312     0.2252 H
31 C31    -0.0096     3.5483    -0.0376 C
32 C32    -0.6784     4.2695    -1.0408 C
33 C33     0.6675     4.2760     0.9495 C
34 C34    -0.6716     5.6595    -1.0564 C
35 H35    -1.1984     3.7329    -1.8268 H
36 C36     0.6835     5.6714     0.9479 C
37 H37     1.1837     3.7453     1.7424 H
38 C38     0.0107     6.3587    -0.0583 C
39 H39    -1.1881     6.1772    -1.8564 H
40 H40     1.2117     6.1815     1.7416 H
41 C41     4.8967    -1.6474     0.0458 C
42 C42     5.5821    -2.6138    -0.7151 C
43 C43     5.6530    -0.8621     0.9309 C
44 C44     6.9556    -2.7813    -0.6022 C
45 H45     5.0333    -3.2294    -1.4186 H
46 C46     7.0349    -1.0105     1.0420 C
47 H47     5.1553    -0.1357     1.5632 H
48 C48     7.6842    -1.9720     0.2719 C
49 H49     7.4429    -3.5346    -1.2105 H
50 H50     7.5659    -0.3815     1.7436 H
51 C51    -4.8965    -1.5927    -0.0715 C
52 C52    -5.6702    -2.2911    -1.0144 C
53 C53    -5.5481    -1.0794     1.0590 C
54 C54    -7.0374    -2.4697    -0.8366 C
55 H55    -5.1954    -2.6896    -1.9043 H
56 C56    -6.9190    -1.2481     1.2482 C
57 H57    -4.9735    -0.5626     1.8193 H
58 C58    -7.6606    -1.9452     0.2977 C
59 H59    -7.5945    -3.0086    -1.5948 H
60 H60    -7.3708    -0.8451     2.1444 H
61 H61    -0.9138    -1.6044    -0.5611 H
62 H62     0.9994    -1.8150    -1.2281 H
63 H63     0.7993    -0.5349     0.4042 H
64 N64     9.1728    -2.1732     0.3469 N
65 N65    -9.1379    -2.1750     0.4735 N
66 N66    -0.0008     7.8627    -0.1052 N
67 C67     9.4717    -3.5861     0.7911 C
68 H68     9.0562    -4.2833     0.0658 H
69 H69    10.5539    -3.7050     0.8501 H
70 H70     9.0144    -3.7413     1.7683 H
71 C71     9.8407    -1.2372     1.3179 C
72 H72     9.6797    -0.2100     0.9922 H
73 H73     9.4310    -1.3989     2.3137 H
74 H74    10.9060    -1.4657     1.3148 H
75 C75     9.7887    -1.9362    -1.0146 C
76 H76     9.5623    -0.9144    -1.3190 H
77 H77    10.8658    -2.0845    -0.9300 H
78 H78     9.3734    -2.6439    -1.7297 H
79 C79    -9.4074    -3.6593     0.5835 C
80 H80   -10.4815    -3.8051     0.7089 H
81 H81    -9.0647    -4.1567    -0.3216 H
82 H82    -8.8651    -4.0377     1.4500 H
83 C83    -9.6871    -1.5218     1.7147 C
84 H84    -9.1882    -1.9347     2.5902 H
85 H85    -9.5364    -0.4447     1.6512 H
86 H86   -10.7520    -1.7461     1.7556 H
87 C87    -9.8973    -1.6077    -0.7042 C
88 H88   -10.9627    -1.7562    -0.5222 H
89 H89    -9.6643    -0.5460    -0.7807 H
90 H90    -9.6011    -2.1275    -1.6132 H
91 C91     0.7645     8.4848     1.0318 C
92 H92     0.2993     8.2018     1.9750 H
93 H93     1.7999     8.1493     0.9918 H
94 H94     0.7178     9.5664     0.9044 H
95 C95    -1.4238     8.3690    -0.0269 C
96 H96    -1.9747     8.0312    -0.9028 H
97 H97    -1.8788     7.9779     0.8825 H
98 H98    -1.3938     9.4588    -0.0044 H
99 C99     0.6315     8.3419    -1.3930 C
100 H100     0.6009     9.4321    -1.4013 H
101 H101     1.6610     7.9855    -1.4200 H
102 H102     0.0746     7.9457    -2.2394 H
103 H103    -3.9639    -4.4554    -0.3124 H
@<TRIPOS>BOND
1 1 7 Ar
2 1 9 Ar
3 1 51 1
4 2 12 Ar
5 2 14 Ar
6 2 31 1
7 3 17 Ar
8 3 19 Ar
9 3 41 1
10 4 5 Ar
11 4 8 Ar
12 4 22 Ar
13 5 6 Ar
14 5 24 1
15 6 7 Ar
16 6 103 1
17 7 8 Ar
18 8 61 1
19 9 10 1
20 9 13 1
21 10 11 2
22 10 25 1
23 11 12 1
24 11 26 1
25 12 13 Ar
26 14 15 Ar
27 14 18 Ar
28 15 16 2
29 15 27 1
30 16 17 Ar
31 16 28 1
32 17 18 1
33 18 63 1
34 19 20 Ar
35 19 23 Ar
36 20 21 Ar
37 20 29 1
38 21 22 Ar
39 21 30 1
40 22 23 Ar
41 23 62 1
42 31 32 Ar
43 31 33 Ar
44 32 34 Ar
45 32 35 1
46 33 36 Ar
47 33 37 1
48 34 38 Ar
49 34 39 1
50 36 38 Ar
51 36 40 1
52 38 66 1
53 41 42 Ar
54 41 43 Ar
55 42 44 Ar
56 42 45 1
57 43 46 Ar
58 43 47 1
59 44 48 Ar
60 44 49 1
61 46 48 Ar
62 46 50 1
63 48 64 1
64 51 52 Ar
65 51 53 Ar
66 52 54 Ar
67 52 55 1
68 53 56 Ar
69 53 57 1
70 54 58 Ar
71 54 59 1
72 56 58 Ar
73 56 60 1
74 58 65 1
75 64 67 1
76 64 71 1
77 64 75 1
78 65 79 1
79 65 83 1
80 65 87 1
81 66 91 1
82 66 95 1
83 66 99 1
84 67 68 1
85 67 69 1
86 67 70 1
87 71 72 1
88 71 73 1
89 71 74 1
90 75 76 1
91 75 77 1
92 75 78 1
93 79 80 1
94 79 81 1
95 79 82 1
96 83 84 1
97 83 85 1
98 83 86 1
99 87 88 1
100 87 89 1
101 87 90 1
102 91 92 1
103 91 93 1
104 91 94 1
105 95 96 1
106 95 97 1
107 95 98 1
108 99 100 1
109 99 101 1
110 99 102 1
