# F10CGaPy_OH4_OPT
# Created by GaussView 6.0.16
#

#
#

@<TRIPOS>MOLECULE
Molecule Name
77 87
SMALL
NO_CHARGES


@<TRIPOS>ATOM
1 C1     3.3788    -0.7651    -0.4415 C
2 C2    -0.0085     2.8199    -0.2831 C
3 C3    -3.3437    -0.8097    -0.5403 C
4 C4     0.7507    -3.1871    -0.6894 C
5 C5     1.8464    -4.0884    -0.8379 C
6 C6     3.0136    -3.3379    -0.7381 C
7 C7     2.6336    -1.9664    -0.5339 C
8 N8     1.2728    -1.9354    -0.4899 N
9 C9     2.8017     0.5253    -0.3802 C
10 C10     3.4914     1.7877    -0.3668 C
11 C11     2.5529     2.7893    -0.3348 C
12 C12     1.2515     2.1749    -0.3078 C
13 N13     1.4398     0.8048    -0.3343 N
14 C14    -1.2612     2.1619    -0.3383 C
15 C15    -2.5730     2.7532    -0.3234 C
16 C16    -3.4946     1.7373    -0.4000 C
17 C17    -2.7842     0.4880    -0.4537 C
18 N18    -1.4269     0.7899    -0.4062 N
19 C19    -2.5825    -1.9984    -0.6545 C
20 C20    -2.9372    -3.3811    -0.8317 C
21 C21    -1.7569    -4.1144    -0.8903 C
22 C22    -0.6787    -3.1925    -0.7381 C
23 N23    -1.2227    -1.9425    -0.5999 N
24 C24    -4.8209    -0.9320    -0.4612 C
25 C25    -5.5876    -1.4385    -1.5147 C
26 C26    -6.9696    -1.5749    -1.4245 C
27 C27    -7.6248    -1.1933    -0.2580 C
28 C28    -6.8919    -0.6853     0.8106 C
29 C29    -5.5110    -0.5692     0.7005 C
30 F30    -4.9967    -1.8074    -2.6603 F
31 F31    -7.6733    -2.0592    -2.4559 F
32 F32    -8.9528    -1.3154    -0.1622 F
33 F33    -7.5185    -0.3281     1.9397 F
34 F34    -4.8367    -0.0999     1.7660 F
35 C35     4.8576    -0.8879    -0.3997 C
36 C36     5.4838    -1.5390     0.6686 C
37 C37     6.8631    -1.7016     0.7334 C
38 C38     7.6613    -1.1973    -0.2889 C
39 C39     7.0723    -0.5388    -1.3637 C
40 C40     5.6888    -0.3980    -1.4115 C
41 F41     4.7482    -2.0187     1.6868 F
42 F42     7.4280    -2.3258     1.7758 F
43 F43     8.9894    -1.3429    -0.2365 F
44 F44     7.8386    -0.0582    -2.3514 F
45 F45     5.1608     0.2282    -2.4728 F
46 C46    -0.0138     4.3087    -0.2046 C
47 C47     0.5552     4.9752     0.8939 C
48 C48     0.5570     6.3634     0.9804 C
49 C49    -0.0218     7.1236    -0.0418 C
50 C50    -0.5935     6.4809    -1.1447 C
51 C51    -0.5838     5.0894    -1.2206 C
52 H52     1.7768    -5.1536    -1.0156 H
53 H53     4.0268    -3.7068    -0.8290 H
54 H54     4.5646     1.9118    -0.3981 H
55 H55     2.7376     3.8536    -0.3471 H
56 H56    -2.7776     3.8124    -0.2691 H
57 H57    -4.5702     1.8425    -0.4335 H
58 H58    -3.9416    -3.7722    -0.9237 H
59 H59    -1.6674    -5.1839    -1.0300 H
60 H60    -1.0362     7.0674    -1.9474 H
61 H61    -1.0166     4.6003    -2.0877 H
62 Ga62     0.0065    -0.4894    -0.1460 Ga
63 C63    -1.2271    -0.5252     2.6463 C
64 C64    -1.3103    -0.6715     4.0256 C
65 C65    -0.1511    -0.9708     4.7410 C
66 C66     1.0529    -1.1155     4.0519 C
67 C67     1.0578    -0.9568     2.6714 C
68 N68    -0.0631    -0.6656     1.9868 N
69 H69    -0.1856    -1.0915     5.8194 H
70 H70    -2.1005    -0.2963     2.0455 H
71 H71    -2.2674    -0.5529     4.5215 H
72 H72     1.9767    -1.3496     4.5694 H
73 H73     1.9665    -1.0681     2.0899 H
74 H74     0.9962     4.3912     1.6963 H
75 O75     0.0011     8.4812     0.0902 O
76 H76    -0.4273     8.8806    -0.6848 H
77 H77     0.9937     6.8719     1.8341 H
@<TRIPOS>BOND
1 1 7 Ar
2 1 9 Ar
3 1 35 1
4 2 12 Ar
5 2 14 Ar
6 2 46 1
7 3 17 Ar
8 3 19 Ar
9 3 24 1
10 4 5 Ar
11 4 8 Ar
12 4 22 Ar
13 5 6 Ar
14 5 52 1
15 6 7 Ar
16 6 53 1
17 7 8 Ar
18 8 62 1
19 9 10 Ar
20 9 13 1
21 10 11 2
22 10 54 1
23 11 12 Ar
24 11 55 1
25 12 13 1
26 13 62 1
27 14 15 Ar
28 14 18 1
29 15 16 2
30 15 56 1
31 16 17 Ar
32 16 57 1
33 17 18 1
34 18 62 1
35 19 20 Ar
36 19 23 Ar
37 20 21 Ar
38 20 58 1
39 21 22 Ar
40 21 59 1
41 22 23 Ar
42 23 62 1
43 24 25 Ar
44 24 29 Ar
45 25 26 Ar
46 25 30 1
47 26 27 Ar
48 26 31 1
49 27 28 Ar
50 27 32 1
51 28 29 Ar
52 28 33 1
53 29 34 1
54 35 36 Ar
55 35 40 Ar
56 36 37 Ar
57 36 41 1
58 37 38 Ar
59 37 42 1
60 38 39 Ar
61 38 43 1
62 39 40 Ar
63 39 44 1
64 40 45 1
65 46 47 Ar
66 46 51 Ar
67 47 48 Ar
68 47 74 1
69 48 49 Ar
70 48 77 1
71 49 50 Ar
72 49 75 1
73 50 51 Ar
74 50 60 1
75 51 61 1
76 63 64 Ar
77 63 68 Ar
78 63 70 1
79 64 65 Ar
80 64 71 1
81 65 66 Ar
82 65 69 1
83 66 67 Ar
84 66 72 1
85 67 68 Ar
86 67 73 1
87 75 76 1
