# F10COH3_OPT
# Created by GaussView 6.0.16
#

#
#

@<TRIPOS>MOLECULE
Molecule Name
68 75
SMALL
NO_CHARGES


@<TRIPOS>ATOM
1 C1     3.3852    -0.9373    -0.0743 C
2 C2    -0.0017     2.6476    -0.1839 C
3 C3    -3.4532    -0.8390    -0.0970 C
4 C4     0.6217    -3.2599    -0.1621 C
5 C5     1.6208    -4.1505     0.2829 C
6 C6     2.8305    -3.4525     0.3438 C
7 C7     2.5956    -2.1116    -0.0549 C
8 N8     1.2536    -2.0466    -0.3736 N
9 C9     2.8283     0.3507    -0.1562 C
10 C10     3.4918     1.6038    -0.3609 C
11 C11     2.5494     2.6031    -0.3978 C
12 C12     1.2538     2.0197    -0.2036 C
13 N13     1.4710     0.6584    -0.0859 N
14 C14    -1.2585     1.9860    -0.1275 C
15 C15    -2.5437     2.6708    -0.0722 C
16 C16    -3.5062     1.7080    -0.0510 C
17 C17    -2.8232     0.4279    -0.0827 C
18 N18    -1.4571     0.6346    -0.1216 N
19 C19    -2.7249    -2.0461    -0.1845 C
20 C20    -3.0535    -3.4324    -0.0888 C
21 C21    -1.8649    -4.1557    -0.0954 C
22 C22    -0.7923    -3.2278    -0.2026 C
23 N23    -1.3655    -1.9892    -0.2883 N
24 C24    -4.9295    -0.9297     0.0101 C
25 C25    -5.6953    -1.5500    -0.9840 C
26 C26    -7.0784    -1.6629    -0.8933 C
27 C27    -7.7394    -1.1428     0.2145 C
28 C28    -7.0101    -0.5214     1.2230 C
29 C29    -5.6264    -0.4299     1.1167 C
30 F30    -5.1001    -2.0530    -2.0761 F
31 F31    -7.7772    -2.2567    -1.8696 F
32 F32    -9.0690    -1.2407     0.3106 F
33 F33    -7.6421    -0.0324     2.2977 F
34 F34    -4.9633     0.1529     2.1255 F
35 C35     4.8629    -1.0743     0.0060 C
36 C36     5.4917    -1.5663     1.1536 C
37 C37     6.8712    -1.7256     1.2331 C
38 C38     7.6673    -1.3718     0.1486 C
39 C39     7.0759    -0.8713    -1.0069 C
40 C40     5.6927    -0.7390    -1.0684 C
41 F41     4.7596    -1.9103     2.2248 F
42 F42     7.4369    -2.2023     2.3491 F
43 F43     8.9945    -1.5116     0.2167 F
44 F44     7.8378    -0.5345    -2.0552 F
45 F45     5.1602    -0.2665    -2.2058 F
46 C46     0.0050     4.1395    -0.2582 C
47 C47     0.6268     4.8897     0.7458 C
48 C48     0.6489     6.2856     0.6747 C
49 C49     0.0458     6.9449    -0.4006 C
50 C50    -0.5739     6.1961    -1.4013 C
51 C51    -0.5968     4.8049    -1.3395 C
52 H52     1.4521    -5.1706     0.6002 H
53 H53     3.7694    -3.8391     0.7124 H
54 H54     0.9072    -1.3680    -1.0402 H
55 H55     4.5569     1.7192    -0.4982 H
56 H56     2.7276     3.6541    -0.5690 H
57 H57     0.7579     0.0628     0.3123 H
58 H58    -2.6863     3.7411    -0.0462 H
59 H59    -4.5772     1.8555    -0.0288 H
60 H60    -4.0528    -3.8365    -0.0065 H
61 H61    -1.7589    -5.2303    -0.0370 H
62 H62    -0.9303    -1.0603    -0.2320 H
63 H63     0.0617     8.0315    -0.4523 H
64 H64    -1.0368     6.7073    -2.2406 H
65 H65    -1.0693     4.2275    -2.1271 H
66 H66     1.0881     4.3994     1.5964 H
67 O67     1.2721     6.9517     1.6902 O
68 H68     1.2020     7.9070     1.5301 H
@<TRIPOS>BOND
1 1 7 Ar
2 1 9 Ar
3 1 35 1
4 2 12 Ar
5 2 14 Ar
6 2 46 1
7 3 17 Ar
8 3 19 Ar
9 3 24 1
10 4 5 Ar
11 4 8 1
12 4 22 Ar
13 5 6 Ar
14 5 52 1
15 6 7 Ar
16 6 53 1
17 7 8 Ar
18 8 54 1
19 9 10 Ar
20 9 13 1
21 10 11 2
22 10 55 1
23 11 12 Ar
24 11 56 1
25 12 13 1
26 13 57 1
27 14 15 1
28 14 18 Ar
29 15 16 2
30 15 58 1
31 16 17 1
32 16 59 1
33 17 18 1
34 19 20 Ar
35 19 23 Ar
36 20 21 Ar
37 20 60 1
38 21 22 Ar
39 21 61 1
40 22 23 Ar
41 23 62 1
42 24 25 Ar
43 24 29 Ar
44 25 26 Ar
45 25 30 1
46 26 27 Ar
47 26 31 1
48 27 28 Ar
49 27 32 1
50 28 29 Ar
51 28 33 1
52 29 34 1
53 35 36 Ar
54 35 40 Ar
55 36 37 Ar
56 36 41 1
57 37 38 Ar
58 37 42 1
59 38 39 Ar
60 38 43 1
61 39 40 Ar
62 39 44 1
63 40 45 1
64 46 47 Ar
65 46 51 Ar
66 47 48 Ar
67 47 66 1
68 48 49 Ar
69 48 67 1
70 49 50 Ar
71 49 63 1
72 50 51 Ar
73 50 64 1
74 51 65 1
75 67 68 1
