# F10C_TD
# Created by GaussView 6.0.16
#

#
#

@<TRIPOS>MOLECULE
Molecule Name
66 73
SMALL
NO_CHARGES


@<TRIPOS>ATOM
1 C1     3.4210    -0.7382    -0.0733 C
2 C2    -0.0049     2.8080    -0.0297 C
3 C3    -3.4168    -0.7151    -0.1119 C
4 C4     0.6846    -3.0854    -0.2687 C
5 C5     1.6890    -3.9793     0.1571 C
6 C6     2.8907    -3.2718     0.2489 C
7 C7     2.6451    -1.9212    -0.1091 C
8 N8     1.3052    -1.8598    -0.4390 N
9 C9     2.8499     0.5453    -0.0955 C
10 C10     3.5031     1.8148    -0.2158 C
11 C11     2.5513     2.8057    -0.2037 C
12 C12     1.2594     2.1983    -0.0635 C
13 N13     1.4887     0.8357    -0.0245 N
14 C14    -1.2562     2.1335    -0.0215 C
15 C15    -2.5499     2.8011     0.0498 C
16 C16    -3.5005     1.8267     0.0269 C
17 C17    -2.8019     0.5573    -0.0480 C
18 N18    -1.4377     0.7814    -0.0706 N
19 C19    -2.6746    -1.9088    -0.2496 C
20 C20    -2.9876    -3.3011    -0.1989 C
21 C21    -1.7915    -4.0103    -0.2320 C
22 C22    -0.7295    -3.0674    -0.3118 C
23 N23    -1.3162    -1.8331    -0.3566 N
24 C24    -4.8915    -0.8273    -0.0057 C
25 C25    -5.6514    -1.4247    -1.0180 C
26 C26    -7.0325    -1.5595    -0.9276 C
27 C27    -7.6971    -1.0859     0.1990 C
28 C28    -6.9735    -0.4875     1.2254 C
29 C29    -5.5916    -0.3735     1.1185 C
30 F30    -5.0524    -1.8827    -2.1276 F
31 F31    -7.7260    -2.1295    -1.9212 F
32 F32    -9.0246    -1.2056     0.2954 F
33 F33    -7.6086    -0.0425     2.3169 F
34 F34    -4.9330     0.1840     2.1446 F
35 C35     4.9003    -0.8594     0.0113 C
36 C36     5.5292    -1.3964     1.1383 C
37 C37     6.9104    -1.5390     1.2196 C
38 C38     7.7079    -1.1217     0.1589 C
39 C39     7.1162    -0.5743    -0.9749 C
40 C40     5.7315    -0.4584    -1.0392 C
41 F41     4.7958    -1.8022     2.1869 F
42 F42     7.4758    -2.0602     2.3154 F
43 F43     9.0363    -1.2453     0.2294 F
44 F44     7.8790    -0.1743    -1.9997 F
45 F45     5.1997     0.0651    -2.1544 F
46 C46    -0.0120     4.2988    -0.0220 C
47 C47     0.5903     5.0245     1.0145 C
48 C48     0.5691     6.4173     0.9726 C
49 C49    -0.5761     6.4284    -1.0011 C
50 C50    -0.6071     5.0365    -1.0544 C
51 H51     1.5277    -5.0097     0.4433 H
52 H52     3.8299    -3.6599     0.6151 H
53 H53     0.9569    -1.1659    -1.0886 H
54 H54     4.5688     1.9490    -0.3298 H
55 H55     2.7233     3.8665    -0.3103 H
56 H56     0.7755     0.2103     0.3249 H
57 H57    -2.7091     3.8674     0.1180 H
58 H58    -4.5732     1.9604     0.0474 H
59 H59    -3.9822    -3.7183    -0.1260 H
60 H60    -1.6733    -5.0850    -0.2089 H
61 H61    -0.8896    -0.9037    -0.2615 H
62 H62     1.0297     6.9931     1.7734 H
63 H63    -1.0318     7.0136    -1.7978 H
64 H64    -1.0780     4.5304    -1.8906 H
65 H65     1.0576     4.5081     1.8467 H
66 N66    -0.0010     7.1248    -0.0114 N
@<TRIPOS>BOND
1 1 7 Ar
2 1 9 Ar
3 1 35 1
4 2 12 Ar
5 2 14 Ar
6 2 46 1
7 3 17 Ar
8 3 19 Ar
9 3 24 1
10 4 5 Ar
11 4 8 1
12 4 22 Ar
13 5 6 Ar
14 5 51 1
15 6 7 Ar
16 6 52 1
17 7 8 Ar
18 8 53 1
19 9 10 Ar
20 9 13 1
21 10 11 2
22 10 54 1
23 11 12 Ar
24 11 55 1
25 12 13 1
26 13 56 1
27 14 15 1
28 14 18 Ar
29 15 16 2
30 15 57 1
31 16 17 1
32 16 58 1
33 17 18 1
34 19 20 Ar
35 19 23 Ar
36 20 21 Ar
37 20 59 1
38 21 22 Ar
39 21 60 1
40 22 23 Ar
41 23 61 1
42 24 25 Ar
43 24 29 Ar
44 25 26 Ar
45 25 30 1
46 26 27 Ar
47 26 31 1
48 27 28 Ar
49 27 32 1
50 28 29 Ar
51 28 33 1
52 29 34 1
53 35 36 Ar
54 35 40 Ar
55 36 37 Ar
56 36 41 1
57 37 38 Ar
58 37 42 1
59 38 39 Ar
60 38 43 1
61 39 40 Ar
62 39 44 1
63 40 45 1
64 46 47 Ar
65 46 50 Ar
66 47 48 Ar
67 47 65 1
68 48 62 1
69 48 66 Ar
70 49 50 Ar
71 49 63 1
72 49 66 Ar
73 50 64 1
