# F10C_TD
# Created by GaussView 6.0.16
#

#
#

@<TRIPOS>MOLECULE
Molecule Name
68 75
SMALL
NO_CHARGES


@<TRIPOS>ATOM
1 C1     3.3237    -1.5733    -0.0795 C
2 C2     0.0182     2.0265     0.5193 C
3 C3    -3.5092    -1.3114    -0.1287 C
4 C4     0.5139    -3.7692    -0.6575 C
5 C5     1.4899    -4.7520    -0.3954 C
6 C6     2.7125    -4.1061    -0.1862 C
7 C7     2.5090    -2.7083    -0.3102 C
8 N8     1.1716    -2.5512    -0.6199 N
9 C9     2.7979    -0.2832     0.0971 C
10 C10     3.4935     0.9649     0.2134 C
11 C11     2.5730     1.9716     0.3802 C
12 C12     1.2600     1.3958     0.3750 C
13 N13     1.4437     0.0384     0.1781 N
14 C14    -1.2516     1.3990     0.4391 C
15 C15    -2.5178     2.1118     0.5319 C
16 C16    -3.5046     1.1898     0.3615 C
17 C17    -2.8519    -0.0918     0.1531 C
18 N18    -1.4810     0.0733     0.2152 N
19 C19    -2.8054    -2.4959    -0.4459 C
20 C20    -3.1670    -3.8603    -0.6586 C
21 C21    -1.9950    -4.5970    -0.8053 C
22 C22    -0.8999    -3.6973    -0.6912 C
23 N23    -1.4428    -2.4558    -0.5088 N
24 C24    -4.9893    -1.3748    -0.0853 C
25 C25    -5.7380    -1.7751    -1.1984 C
26 C26    -7.1257    -1.8592    -1.1683 C
27 C27    -7.8100    -1.5307    -0.0027 C
28 C28    -7.0982    -1.1278     1.1226 C
29 C29    -5.7100    -1.0613     1.0732 C
30 F30    -5.1215    -2.0857    -2.3488 F
31 F31    -7.8055    -2.2418    -2.2570 F
32 F32    -9.1440    -1.6029     0.0362 F
33 F33    -7.7518    -0.8228     2.2511 F
34 F34    -5.0663    -0.6926     2.1898 F
35 C35     4.7955    -1.7618     0.0095 C
36 C36     5.3793    -2.4943     1.0472 C
37 C37     6.7532    -2.6944     1.1320 C
38 C38     7.5890    -2.1392     0.1685 C
39 C39     7.0429    -1.3968    -0.8735 C
40 C40     5.6644    -1.2255    -0.9456 C
41 F41     4.6083    -3.0358     2.0031 F
42 F42     7.2754    -3.4037     2.1404 F
43 F43     8.9110    -2.3178     0.2439 F
44 F44     7.8433    -0.8651    -1.8056 F
45 F45     5.1753    -0.5120    -1.9713 F
46 C46     0.0517     3.5062     0.7302 C
47 C47    -0.2480     4.0720     1.9840 C
48 C48    -0.2050     5.4586     2.1603 C
49 C49     0.1411     6.2975     1.1031 C
50 C50     0.4408     5.7368    -0.1340 C
51 C51     0.3950     4.3583    -0.3241 C
52 H52     1.2970    -5.8106    -0.2869 H
53 H53     3.6383    -4.5798     0.1063 H
54 H54     0.8485    -1.7525    -1.1519 H
55 H55     4.5662     1.0785     0.1559 H
56 H56     2.7792     3.0267     0.4835 H
57 H57     0.7120    -0.6066     0.4440 H
58 H58    -2.6296     3.1747     0.6930 H
59 H59    -4.5713     1.3668     0.3452 H
60 H60    -4.1763    -4.2466    -0.6833 H
61 H61    -1.9157    -5.6602    -0.9858 H
62 H62    -0.9862    -1.5766    -0.2396 H
63 H63    -0.4357     5.8870     3.1331 H
64 H64     0.1753     7.3716     1.2468 H
65 H65     0.6213     3.9306    -1.2943 H
66 O66    -0.5691     3.2208     2.9966 O
67 H67    -0.7723     3.7373     3.7938 H
68 Br68     0.9182     6.8734    -1.5996 Br
@<TRIPOS>BOND
1 1 7 Ar
2 1 9 Ar
3 1 35 1
4 2 12 Ar
5 2 14 Ar
6 2 46 1
7 3 17 Ar
8 3 19 Ar
9 3 24 1
10 4 5 Ar
11 4 8 1
12 4 22 Ar
13 5 6 Ar
14 5 52 1
15 6 7 Ar
16 6 53 1
17 7 8 Ar
18 8 54 1
19 9 10 Ar
20 9 13 1
21 10 11 2
22 10 55 1
23 11 12 Ar
24 11 56 1
25 12 13 1
26 13 57 1
27 14 15 1
28 14 18 Ar
29 15 16 2
30 15 58 1
31 16 17 1
32 16 59 1
33 17 18 1
34 19 20 Ar
35 19 23 Ar
36 20 21 Ar
37 20 60 1
38 21 22 Ar
39 21 61 1
40 22 23 Ar
41 23 62 1
42 24 25 Ar
43 24 29 Ar
44 25 26 Ar
45 25 30 1
46 26 27 Ar
47 26 31 1
48 27 28 Ar
49 27 32 1
50 28 29 Ar
51 28 33 1
52 29 34 1
53 35 36 Ar
54 35 40 Ar
55 36 37 Ar
56 36 41 1
57 37 38 Ar
58 37 42 1
59 38 39 Ar
60 38 43 1
61 39 40 Ar
62 39 44 1
63 40 45 1
64 46 47 Ar
65 46 51 Ar
66 47 48 Ar
67 47 66 1
68 48 49 Ar
69 48 63 1
70 49 50 Ar
71 49 64 1
72 50 51 Ar
73 50 68 1
74 51 65 1
75 66 67 1
