# F10C_TD
# Created by GaussView 6.0.16
#

#
#

@<TRIPOS>MOLECULE
Molecule Name
68 75
SMALL
NO_CHARGES


@<TRIPOS>ATOM
1 C1     3.3947    -1.1795    -0.0691 C
2 C2     0.0072     2.3831     0.2110 C
3 C3    -3.4442    -1.0797    -0.1263 C
4 C4     0.6345    -3.4913    -0.3764 C
5 C5     1.6332    -4.4158    -0.0099 C
6 C6     2.8422    -3.7235     0.1159 C
7 C7     2.6065    -2.3532    -0.1617 C
8 N8     1.2644    -2.2624    -0.4773 N
9 C9     2.8371     0.1084    -0.0248 C
10 C10     3.5048     1.3770    -0.0224 C
11 C11     2.5632     2.3740     0.0668 C
12 C12     1.2630     1.7711     0.1144 C
13 N13     1.4763     0.4063     0.0318 N
14 C14    -1.2477     1.7220     0.1831 C
15 C15    -2.5295     2.4122     0.2125 C
16 C16    -3.4953     1.4576     0.1205 C
17 C17    -2.8146     0.1765     0.0325 C
18 N18    -1.4476     0.3774     0.0767 N
19 C19    -2.7135    -2.2751    -0.3187 C
20 C20    -3.0446    -3.6617    -0.3942 C
21 C21    -1.8562    -4.3841    -0.4527 C
22 C22    -0.7808    -3.4548    -0.4201 C
23 N23    -1.3513    -2.2129    -0.3711 N
24 C24    -4.9231    -1.1714    -0.0754 C
25 C25    -5.6606    -1.7137    -1.1348 C
26 C26    -7.0461    -1.8255    -1.0947 C
27 C27    -7.7402    -1.3833     0.0265 C
28 C28    -7.0403    -0.8383     1.0980 C
29 C29    -5.6538    -0.7471     1.0412 C
30 F30    -5.0363    -2.1390    -2.2436 F
31 F31    -7.7154    -2.3424    -2.1333 F
32 F32    -9.0723    -1.4811     0.0745 F
33 F33    -7.7031    -0.4225     2.1849 F
34 F34    -5.0217    -0.2426     2.1106 F
35 C35     4.8726    -1.3176     0.0105 C
36 C36     5.4984    -1.9309     1.1000 C
37 C37     6.8788    -2.0854     1.1726 C
38 C38     7.6796    -1.6033     0.1424 C
39 C39     7.0916    -0.9789    -0.9529 C
40 C40     5.7078    -0.8511    -1.0098 C
41 F41     4.7635    -2.4000     2.1206 F
42 F42     7.4402    -2.6807     2.2323 F
43 F43     9.0074    -1.7390     0.2050 F
44 F44     7.8575    -0.5168    -1.9490 F
45 F45     5.1802    -0.2500    -2.0872 F
46 C46     0.0080     3.8734     0.3333 C
47 C47    -0.2977     4.4971     1.5581 C
48 C48    -0.2736     5.8907     1.6651 C
49 C49     0.0540     6.6813     0.5656 C
50 C50     0.3557     6.0631    -0.6437 C
51 C51     0.3332     4.6757    -0.7644 C
52 H52     1.4655    -5.4596     0.2181 H
53 H53     3.7798    -4.1404     0.4532 H
54 H54     0.9200    -1.5365    -1.0928 H
55 H55     4.5745     1.5080    -0.0940 H
56 H56     2.7468     3.4382     0.0811 H
57 H57     0.7608    -0.2285     0.3589 H
58 H58    -2.6648     3.4825     0.2790 H
59 H59    -4.5654     1.6094     0.0876 H
60 H60    -4.0453    -4.0701    -0.3917 H
61 H61    -1.7533    -5.4582    -0.5239 H
62 H62    -0.9160    -1.3014    -0.1864 H
63 H63    -0.5026     6.3632     2.6176 H
64 H64     0.0735     7.7619     0.6534 H
65 H65     0.5638     4.2052    -1.7136 H
66 O66    -0.6038     3.6932     2.6135 O
67 H67    -0.8116     4.2463     3.3845 H
68 Cl68     0.7698     7.0479    -2.0471 Cl
@<TRIPOS>BOND
1 1 7 Ar
2 1 9 Ar
3 1 35 1
4 2 12 Ar
5 2 14 Ar
6 2 46 1
7 3 17 Ar
8 3 19 Ar
9 3 24 1
10 4 5 Ar
11 4 8 1
12 4 22 Ar
13 5 6 Ar
14 5 52 1
15 6 7 Ar
16 6 53 1
17 7 8 Ar
18 8 54 1
19 9 10 Ar
20 9 13 1
21 10 11 2
22 10 55 1
23 11 12 Ar
24 11 56 1
25 12 13 1
26 13 57 1
27 14 15 1
28 14 18 Ar
29 15 16 2
30 15 58 1
31 16 17 1
32 16 59 1
33 17 18 1
34 19 20 Ar
35 19 23 Ar
36 20 21 Ar
37 20 60 1
38 21 22 Ar
39 21 61 1
40 22 23 Ar
41 23 62 1
42 24 25 Ar
43 24 29 Ar
44 25 26 Ar
45 25 30 1
46 26 27 Ar
47 26 31 1
48 27 28 Ar
49 27 32 1
50 28 29 Ar
51 28 33 1
52 29 34 1
53 35 36 Ar
54 35 40 Ar
55 36 37 Ar
56 36 41 1
57 37 38 Ar
58 37 42 1
59 38 39 Ar
60 38 43 1
61 39 40 Ar
62 39 44 1
63 40 45 1
64 46 47 Ar
65 46 51 Ar
66 47 48 Ar
67 47 66 1
68 48 49 Ar
69 48 63 1
70 49 50 Ar
71 49 64 1
72 50 51 Ar
73 50 68 1
74 51 65 1
75 66 67 1
