# F10C_TD
# Created by GaussView 6.0.16
#

#
#

@<TRIPOS>MOLECULE
Molecule Name
68 75
SMALL
NO_CHARGES


@<TRIPOS>ATOM
1 C1     3.4278    -0.9904    -0.0790 C
2 C2     0.0020     2.5453     0.0305 C
3 C3    -3.4118    -0.9693    -0.1163 C
4 C4     0.6929    -3.3427    -0.2840 C
5 C5     1.7018    -4.2389     0.1232 C
6 C6     2.9037    -3.5295     0.2141 C
7 C7     2.6534    -2.1759    -0.1264 C
8 N8     1.3106    -2.1140    -0.4453 N
9 C9     2.8561     0.2921    -0.0856 C
10 C10     3.5107     1.5667    -0.1353 C
11 C11     2.5581     2.5563    -0.0980 C
12 C12     1.2641     1.9425    -0.0293 C
13 N13     1.4926     0.5776    -0.0454 N
14 C14    -1.2455     1.8691     0.0367 C
15 C15    -2.5351     2.5451     0.0404 C
16 C16    -3.4904     1.5764     0.0032 C
17 C17    -2.7957     0.3005    -0.0270 C
18 N18    -1.4308     0.5182    -0.0016 N
19 C19    -2.6685    -2.1641    -0.2540 C
20 C20    -2.9832    -3.5561    -0.2464 C
21 C21    -1.7867    -4.2665    -0.2824 C
22 C22    -0.7228    -3.3241    -0.3202 C
23 N23    -1.3081    -2.0883    -0.3331 N
24 C24    -4.8891    -1.0756    -0.0520 C
25 C25    -5.6252    -1.6689    -1.0845 C
26 C26    -7.0093    -1.7931    -1.0330 C
27 C27    -7.7026    -1.3116     0.0725 C
28 C28    -7.0038    -0.7158     1.1173 C
29 C29    -5.6186    -0.6127     1.0499 C
30 F30    -5.0004    -2.1325    -2.1775 F
31 F31    -7.6783    -2.3600    -2.0454 F
32 F32    -9.0335    -1.4211     0.1311 F
33 F33    -7.6665    -0.2625     2.1892 F
34 F34    -4.9866    -0.0563     2.0931 F
35 C35     4.9070    -1.1075     0.0106 C
36 C36     5.5356    -1.6642     1.1284 C
37 C37     6.9176    -1.7986     1.2125 C
38 C38     7.7166    -1.3527     0.1648 C
39 C39     7.1256    -0.7840    -0.9588 C
40 C40     5.7406    -0.6760    -1.0263 C
41 F41     4.8022    -2.0964     2.1662 F
42 F42     7.4821    -2.3392     2.2995 F
43 F43     9.0458    -1.4687     0.2383 F
44 F44     7.8901    -0.3558    -1.9712 F
45 F45     5.2106    -0.1293    -2.1312 F
46 C46    -0.0169     4.0402     0.0594 C
47 C47    -0.3344     4.7358     1.2418 C
48 C48    -0.3493     6.1338     1.2562 C
49 C49    -0.0439     6.8592     0.1052 C
50 C50     0.2729     6.1637    -1.0519 C
51 C51     0.2887     4.7761    -1.0903 C
52 H52     1.5450    -5.2726     0.3999 H
53 H53     3.8459    -3.9208     0.5688 H
54 H54     0.9555    -1.4163    -1.0870 H
55 H55     4.5798     1.7055    -0.2048 H
56 H56     2.7293     3.6222    -0.1305 H
57 H57     0.7810    -0.0495     0.3044 H
58 H58    -2.6826     3.6157     0.0580 H
59 H59    -4.5624     1.7147    -0.0284 H
60 H60    -3.9789    -3.9748    -0.2038 H
61 H61    -1.6711    -5.3416    -0.2928 H
62 H62    -0.8826    -1.1628    -0.2033 H
63 H63    -0.5938     6.6604     2.1758 H
64 H64    -0.0508     7.9439     0.1037 H
65 H65     0.5305     4.2659    -2.0164 H
66 O66    -0.6159     3.9943     2.3524 O
67 H67    -0.8375     4.5937     3.0835 H
68 F68     0.5698     6.8553    -2.1795 F
@<TRIPOS>BOND
1 1 7 Ar
2 1 9 Ar
3 1 35 1
4 2 12 Ar
5 2 14 Ar
6 2 46 1
7 3 17 Ar
8 3 19 Ar
9 3 24 1
10 4 5 Ar
11 4 8 1
12 4 22 Ar
13 5 6 Ar
14 5 52 1
15 6 7 Ar
16 6 53 1
17 7 8 Ar
18 8 54 1
19 9 10 Ar
20 9 13 1
21 10 11 2
22 10 55 1
23 11 12 Ar
24 11 56 1
25 12 13 1
26 13 57 1
27 14 15 1
28 14 18 Ar
29 15 16 2
30 15 58 1
31 16 17 1
32 16 59 1
33 17 18 1
34 19 20 Ar
35 19 23 Ar
36 20 21 Ar
37 20 60 1
38 21 22 Ar
39 21 61 1
40 22 23 Ar
41 23 62 1
42 24 25 Ar
43 24 29 Ar
44 25 26 Ar
45 25 30 1
46 26 27 Ar
47 26 31 1
48 27 28 Ar
49 27 32 1
50 28 29 Ar
51 28 33 1
52 29 34 1
53 35 36 Ar
54 35 40 Ar
55 36 37 Ar
56 36 41 1
57 37 38 Ar
58 37 42 1
59 38 39 Ar
60 38 43 1
61 39 40 Ar
62 39 44 1
63 40 45 1
64 46 47 Ar
65 46 51 Ar
66 47 48 Ar
67 47 66 1
68 48 49 Ar
69 48 63 1
70 49 50 Ar
71 49 64 1
72 50 51 Ar
73 50 68 1
74 51 65 1
75 66 67 1
