# F12_NO3_OPT
# Created by GaussView 6.0.16
#

#
#

@<TRIPOS>MOLECULE
Molecule Name
94 101
SMALL
NO_CHARGES


@<TRIPOS>ATOM
1 C1     3.5043    -1.5039     0.1888 C
2 C2    -0.1702     1.7672    -0.0800 C
3 C3    -3.3203    -1.9904    -0.1672 C
4 C4     0.9532    -4.0523    -0.0488 C
5 C5     1.9951    -4.8543     0.4589 C
6 C6     3.1365    -4.0550     0.5857 C
7 C7     2.8126    -2.7407     0.1665 C
8 N8     1.4915    -2.7917    -0.2325 N
9 C9     2.8428    -0.2709     0.0841 C
10 C10     3.4038     1.0392    -0.0729 C
11 C11     2.3811     1.9516    -0.1604 C
12 C12     1.1333     1.2535    -0.0513 C
13 N13     1.4594    -0.0828     0.0731 N
14 C14    -1.3704     1.0047    -0.0748 C
15 C15    -2.7080     1.5812    -0.0890 C
16 C16    -3.5865     0.5421    -0.1210 C
17 C17    -2.7994    -0.6776    -0.1169 C
18 N18    -1.4531    -0.3553    -0.0818 N
19 C19    -2.4833    -3.1307    -0.2255 C
20 C20    -2.6949    -4.5383    -0.1399 C
21 C21    -1.4481    -5.1578    -0.0966 C
22 C22    -0.4571    -4.1416    -0.1616 C
23 N23    -1.1301    -2.9572    -0.2735 N
24 C24    -4.7847    -2.2079    -0.1438 C
25 C25    -5.4442    -2.9105    -1.1617 C
26 C26    -6.8079    -3.1325    -1.1391 C
27 C27    -7.6391    -2.6680    -0.1018 C
28 C28    -6.9787    -1.9693     0.9216 C
29 C29    -5.6064    -1.7536     0.8924 C
30 F30    -4.7501    -3.3807    -2.2131 F
31 F31    -7.3922    -3.7997    -2.1638 F
32 F32    -7.6732    -1.4741     1.9730 F
33 F33    -5.0726    -1.0865     1.9299 F
34 C34     4.9824    -1.5162     0.3394 C
35 C35     5.6143    -1.9627     1.5051 C
36 C36     6.9912    -1.9949     1.6297 C
37 C37     7.8589    -1.5698     0.6057 C
38 C38     7.2237    -1.1104    -0.5593 C
39 C39     5.8401    -1.1063    -0.6831 C
40 F40     4.8774    -2.3948     2.5447 F
41 F41     7.5461    -2.4557     2.7761 F
42 F42     7.9541    -0.6935    -1.6223 F
43 F43     5.3277    -0.6668    -1.8473 F
44 C44    -0.2877     3.2497    -0.1374 C
45 C45     0.1640     4.0743     0.8960 C
46 C46     0.0617     5.4602     0.8602 C
47 C47    -0.5027     6.1265    -0.2380 C
48 C48    -0.9580     5.2943    -1.2764 C
49 C49    -0.8500     3.9161    -1.2324 C
50 H50     1.8937    -5.8837     0.7746 H
51 H51     4.0813    -4.3571     1.0132 H
52 H52     1.1230    -2.1382    -0.9118 H
53 H53     4.4612     1.2481    -0.1417 H
54 H54     2.4774     3.0163    -0.3158 H
55 H55     0.7792    -0.7350     0.4394 H
56 H56    -2.9423     2.6362    -0.0710 H
57 H57    -4.6654     0.5972    -0.1592 H
58 H58    -3.6586    -5.0257    -0.0950 H
59 H59    -1.2527    -6.2193    -0.0300 H
60 H60    -0.7795    -1.9946    -0.1971 H
61 F61    -1.4931     5.8854    -2.3722 F
62 F62    -1.2959     3.2163    -2.2900 F
63 F63     0.5111     6.1559     1.9291 F
64 F64     0.7180     3.5274     1.9927 F
65 N65    -0.6855     7.4928    -0.3392 N
66 H66    -0.9794     7.7513    -1.2750 H
67 N67    -8.9807    -2.9737    -0.1412 N
68 H68    -9.2716    -3.3374    -1.0390 H
69 N69     9.2172    -1.5791     0.8340 N
70 H70     9.4672    -2.0788     1.6774 H
71 C71     0.2450     8.4581     0.2481 C
72 H72     1.2731     8.3185    -0.1182 H
73 H73     0.2589     8.3437     1.3317 H
74 C74   -10.0261    -2.2910     0.6138 C
75 H75   -10.9495    -2.8549     0.4390 H
76 H76    -9.8108    -2.3423     1.6818 H
77 C77    10.2363    -1.6040    -0.2115 C
78 H78    10.1337    -0.7165    -0.8407 H
79 H79    11.2067    -1.5387     0.2878 H
80 C80    10.2035    -2.8657    -1.0832 C
81 H81    10.3715    -3.7513    -0.4611 H
82 H82     9.2164    -2.9734    -1.5549 H
83 C83   -10.2351    -0.8271     0.2044 C
84 H84    -9.3319    -0.2496     0.4195 H
85 H85   -10.4209    -0.7664    -0.8800 H
86 O86    11.2447    -2.8542    -2.0516 O
87 H87    11.0254    -2.1683    -2.7029 H
88 O88   -11.2764    -0.2169     0.9549 O
89 H89   -12.1109    -0.6399     0.6955 H
90 C90    -0.2233     9.8640    -0.0983 C
91 H91    -0.2898     9.9754    -1.1946 H
92 H92    -1.2309    10.0256     0.3134 H
93 O93     0.7266    10.7645     0.4534 O
94 H94     0.4101    11.6654     0.2852 H
@<TRIPOS>BOND
1 1 7 Ar
2 1 9 Ar
3 1 34 1
4 2 12 Ar
5 2 14 Ar
6 2 44 1
7 3 17 Ar
8 3 19 Ar
9 3 24 1
10 4 5 Ar
11 4 8 1
12 4 22 Ar
13 5 6 Ar
14 5 50 1
15 6 7 Ar
16 6 51 1
17 7 8 Ar
18 8 52 1
19 9 10 Ar
20 9 13 1
21 10 11 2
22 10 53 1
23 11 12 Ar
24 11 54 1
25 12 13 Ar
26 13 55 1
27 14 15 1
28 14 18 Ar
29 15 16 2
30 15 56 1
31 16 17 1
32 16 57 1
33 17 18 1
34 19 20 Ar
35 19 23 Ar
36 20 21 Ar
37 20 58 1
38 21 22 Ar
39 21 59 1
40 22 23 Ar
41 23 60 1
42 24 25 Ar
43 24 29 Ar
44 25 26 2
45 25 30 1
46 26 27 Ar
47 26 31 1
48 27 28 Ar
49 27 67 Ar
50 28 29 Ar
51 28 32 1
52 29 33 1
53 34 35 Ar
54 34 39 Ar
55 35 36 2
56 35 40 1
57 36 37 Ar
58 36 41 1
59 37 38 Ar
60 37 69 Ar
61 38 39 Ar
62 38 42 1
63 39 43 1
64 44 45 Ar
65 44 49 Ar
66 45 46 Ar
67 45 64 1
68 46 47 Ar
69 46 63 1
70 47 48 Ar
71 47 65 1
72 48 49 2
73 48 61 1
74 49 62 1
75 65 66 1
76 65 71 1
77 67 68 1
78 67 74 1
79 69 70 1
80 69 77 1
81 71 72 1
82 71 73 1
83 71 90 1
84 74 75 1
85 74 76 1
86 74 83 1
87 77 78 1
88 77 79 1
89 77 80 1
90 80 81 1
91 80 82 1
92 80 86 1
93 83 84 1
94 83 85 1
95 83 88 1
96 86 87 1
97 88 89 1
98 90 91 1
99 90 92 1
100 90 93 1
101 93 94 1
