# F13_Ga_NO3_OPT
# Created by GaussView 6.0.16
#

#
#

@<TRIPOS>MOLECULE
Molecule Name
92 102
SMALL
NO_CHARGES


@<TRIPOS>ATOM
1 C1    -3.5773    -1.3296    -0.2657 C
2 C2     0.1361     1.9092    -0.0455 C
3 C3     3.1119    -2.0274     0.0578 C
4 C4    -1.1919    -4.0078    -0.1895 C
5 C5    -2.3707    -4.8059    -0.2261 C
6 C6    -3.4588    -3.9393    -0.2685 C
7 C7    -2.9516    -2.5975    -0.2609 C
8 N8    -1.5878    -2.6932    -0.2190 N
9 C9    -2.8777    -0.1031    -0.2238 C
10 C10    -3.4382     1.2201    -0.2337 C
11 C11    -2.4113     2.1278    -0.1620 C
12 C12    -1.1765     1.3972    -0.1180 C
13 N13    -1.4901     0.0465    -0.1579 N
14 C14     1.3179     1.1367    -0.0054 C
15 C15     2.6744     1.5974     0.0740 C
16 C16     3.4933     0.4960     0.1134 C
17 C17     2.6756    -0.6827     0.0488 C
18 N18     1.3489    -0.2495    -0.0229 N
19 C19     2.2381    -3.1376     0.0068 C
20 C20     2.4597    -4.5548    -0.0241 C
21 C21     1.2181    -5.1790    -0.0885 C
22 C22     0.2275    -4.1552    -0.1038 C
23 N23     0.8832    -2.9511    -0.0381 N
24 C24     4.5691    -2.2992     0.1283 C
25 C25     5.1360    -3.0221     1.1860 C
26 C26     6.4881    -3.3041     1.2410 C
27 C27     7.3961    -2.8843     0.2492 C
28 C28     6.8282    -2.1552    -0.8086 C
29 C29     5.4666    -1.8818    -0.8581 C
30 F30     4.3620    -3.4544     2.1967 F
31 F31     6.9834    -3.9931     2.2972 F
32 F32     7.6023    -1.6927    -1.8185 F
33 F33     5.0195    -1.1889    -1.9205 F
34 C34    -5.0614    -1.2942    -0.3089 C
35 C35    -5.7771    -1.8329    -1.3833 C
36 C36    -7.1650    -1.8328    -1.4075 C
37 C37    -7.9269    -1.2699    -0.3770 C
38 C38    -7.2120    -0.7056     0.6842 C
39 C39    -5.8235    -0.7423     0.7261 C
40 F40    -5.1240    -2.3777    -2.4231 F
41 F41    -7.8057    -2.3687    -2.4668 F
42 F42    -7.8705    -0.1050     1.6937 F
43 F43    -5.2131    -0.2055     1.7956 F
44 C44     0.2895     3.3880    -0.0064 C
45 C45    -0.0832     4.2057    -1.0798 C
46 C46     0.0608     5.5808    -1.0389 C
47 C47     0.5989     6.2538     0.0740 C
48 C48     0.9733     5.4336     1.1499 C
49 C49     0.8196     4.0533     1.1012 C
50 H50    -2.4072    -5.8873    -0.2151 H
51 H51    -4.5029    -4.2199    -0.2964 H
52 H52    -4.4937     1.4441    -0.2914 H
53 H53    -2.4988     3.2044    -0.1384 H
54 H54     2.9795     2.6335     0.0967 H
55 H55     4.5711     0.4956     0.1877 H
56 H56     3.4246    -5.0426    -0.0074 H
57 H57     1.0324    -6.2442    -0.1296 H
58 F58    -0.3025     6.3222    -2.1111 F
59 F59    -0.5898     3.6550    -2.1973 F
60 F60     1.1996     3.3502     2.1834 F
61 F61     1.4808     5.9770     2.2807 F
62 N62     0.6681     7.6298     0.0570 N
63 H63     0.5477     8.0104    -0.8766 H
64 C64     1.6732     8.3892     0.8003 C
65 H65     2.6932     8.0458     0.5703 H
66 H66     1.5142     8.2806     1.8743 H
67 C67     1.5330     9.8523     0.4204 C
68 H68     2.2957    10.4397     0.9520 H
69 H69     0.5412    10.2179     0.7231 H
70 O70     1.6992     9.9395    -0.9945 O
71 H71     1.4161    10.8221    -1.2790 H
72 N72     8.7163    -3.2529     0.3633 N
73 H73     8.9398    -3.6406     1.2701 H
74 N74    -9.3346    -1.2216    -0.4453 N
75 H75    -9.6152    -1.2717    -1.4199 H
76 C76     9.8355    -2.6313    -0.3337 C
77 H77    10.7216    -3.2334    -0.1126 H
78 H78     9.6740    -2.6691    -1.4116 H
79 C79    10.0982    -1.1880     0.0954 C
80 H80     9.2340    -0.5610    -0.1672 H
81 H81    10.2227    -1.1485     1.1901 H
82 C82   -10.0975    -2.2346     0.3253 C
83 H83   -11.0813    -2.2885    -0.1503 H
84 H84    -9.6322    -3.2300     0.2698 H
85 C85   -10.2814    -1.8148     1.7813 C
86 H86    -9.3282    -1.8883     2.3250 H
87 H87   -10.9845    -2.5037     2.2625 H
88 O88    11.2734    -0.7669    -0.5833 O
89 H89    11.4048     0.1754    -0.3970 H
90 O90   -10.8340    -0.5159     1.8755 O
91 H91   -10.2839     0.0328     1.2890 H
92 Ga92    -0.2006    -1.3619    -0.1136 Ga
@<TRIPOS>BOND
1 1 7 Ar
2 1 9 Ar
3 1 34 1
4 2 12 Ar
5 2 14 Ar
6 2 44 1
7 3 17 Ar
8 3 19 Ar
9 3 24 1
10 4 5 Ar
11 4 8 Ar
12 4 22 Ar
13 5 6 Ar
14 5 50 1
15 6 7 Ar
16 6 51 1
17 7 8 Ar
18 8 92 1
19 9 10 Ar
20 9 13 1
21 10 11 2
22 10 52 1
23 11 12 Ar
24 11 53 1
25 12 13 1
26 13 92 1
27 14 15 Ar
28 14 18 1
29 15 16 2
30 15 54 1
31 16 17 Ar
32 16 55 1
33 17 18 1
34 18 92 1
35 19 20 Ar
36 19 23 Ar
37 20 21 Ar
38 20 56 1
39 21 22 Ar
40 21 57 1
41 22 23 Ar
42 23 92 1
43 24 25 Ar
44 24 29 Ar
45 25 26 2
46 25 30 1
47 26 27 Ar
48 26 31 1
49 27 28 Ar
50 27 72 Ar
51 28 29 Ar
52 28 32 1
53 29 33 1
54 34 35 Ar
55 34 39 Ar
56 35 36 Ar
57 35 40 1
58 36 37 Ar
59 36 41 1
60 37 38 Ar
61 37 74 1
62 38 39 Ar
63 38 42 1
64 39 43 1
65 44 45 Ar
66 44 49 Ar
67 45 46 2
68 45 59 1
69 46 47 Ar
70 46 58 1
71 47 48 Ar
72 47 62 Ar
73 48 49 Ar
74 48 61 1
75 49 60 1
76 62 63 1
77 62 64 1
78 64 65 1
79 64 66 1
80 64 67 1
81 67 68 1
82 67 69 1
83 67 70 1
84 70 71 1
85 72 73 1
86 72 76 1
87 74 75 1
88 74 82 1
89 76 77 1
90 76 78 1
91 76 79 1
92 79 80 1
93 79 81 1
94 79 88 1
95 82 83 1
96 82 84 1
97 82 85 1
98 85 86 1
99 85 87 1
100 85 90 1
101 88 89 1
102 90 91 1
