# F14_Ga_COOH_OPT
# Created by GaussView 6.0.16
#

#
#

@<TRIPOS>MOLECULE
Molecule Name
76 86
SMALL
NO_CHARGES


@<TRIPOS>ATOM
1 C1    -4.3133    -1.3945    -0.0930 C
2 C2    -1.0775     2.3218     0.0339 C
3 C3     2.4102    -1.1646     0.1625 C
4 C4    -1.5842    -3.7188     0.0030 C
5 C5    -2.6426    -4.6717    -0.0241 C
6 C6    -3.8393    -3.9636    -0.0648 C
7 C7    -3.5208    -2.5647    -0.0682 C
8 N8    -2.1572    -2.4715    -0.0297 N
9 C9    -3.7891    -0.0834    -0.0699 C
10 C10    -4.5243     1.1493    -0.1304 C
11 C11    -3.6313     2.1910    -0.0943 C
12 C12    -2.3097     1.6368    -0.0122 C
13 N13    -2.4358     0.2561    -0.0005 N
14 C14     0.2001     1.7228     0.0807 C
15 C15     1.4799     2.3662     0.1611 C
16 C16     2.4425     1.3878     0.1991 C
17 C17     1.7944     0.1078     0.1405 C
18 N18     0.4203     0.3543     0.0715 N
19 C19     1.6958    -2.3841     0.1397 C
20 C20     2.1092    -3.7582     0.1214 C
21 C21     0.9648    -4.5472     0.0809 C
22 C22    -0.1573    -3.6690     0.0708 C
23 N23     0.3279    -2.3857     0.1130 N
24 C24     3.8917    -1.2333     0.2160 C
25 C25     4.5648    -1.8525     1.2769 C
26 C26     5.9443    -1.9419     1.3156 C
27 C27     6.7678    -1.4208     0.3010 C
28 C28     6.0942    -0.8020    -0.7634 C
29 C29     4.7072    -0.7159    -0.7939 C
30 F30     3.8705    -2.3656     2.3069 F
31 F31     6.5450    -2.5307     2.3764 F
32 F32     6.7837    -0.2870    -1.8058 F
33 F33     4.1506    -0.1180    -1.8614 F
34 C34    -1.1294     3.8094     0.0333 C
35 C35    -0.6156     4.5602    -1.0286 C
36 C36    -0.6558     5.9508    -1.0380 C
37 C37    -1.2326     6.6290     0.0313 C
38 C38    -1.7583     5.9122     1.1017 C
39 C39    -1.6963     4.5225     1.0943 C
40 F40    -0.0621     3.9426    -2.0821 F
41 F41    -0.1545     6.6385    -2.0715 F
42 F42    -1.2806     7.9644     0.0309 F
43 F43    -2.3077     6.5629     2.1346 F
44 F44    -2.2023     3.8678     2.1494 F
45 C45    -5.7887    -1.5616    -0.1469 C
46 C46    -6.6221    -1.1089     0.8818 C
47 C47    -8.0026    -1.2747     0.8419 C
48 C48    -8.5873    -1.9209    -0.2427 C
49 C49    -7.7871    -2.3893    -1.2800 C
50 C50    -6.4097    -2.2032    -1.2242 C
51 F51    -6.0985    -0.4941     1.9522 F
52 F52    -8.7691    -0.8281     1.8446 F
53 F53    -9.9117    -2.0906    -0.2884 F
54 F54    -8.3467    -3.0048    -2.3290 F
55 F55    -5.6768    -2.6564    -2.2516 F
56 Ga56    -0.9641    -0.9616     0.0393 Ga
57 H57    -2.5303    -5.7477    -0.0080 H
58 H58    -5.5996     1.2254    -0.2075 H
59 H59    -3.8642     3.2453    -0.1350 H
60 H60     1.6408     3.4341     0.2010 H
61 H61     3.5100     1.5375     0.2726 H
62 H62     3.1317    -4.1099     0.1296 H
63 H63    -4.8349    -4.3854    -0.0839 H
64 H64     0.9267    -5.6282     0.0536 H
65 N65     8.1345    -1.5953     0.3909 N
66 H66     8.4076    -1.9215     1.3111 H
67 C67     9.0936    -0.6601    -0.1997 C
68 H68     8.9139     0.3715     0.1390 H
69 H69     8.9917    -0.6729    -1.2835 H
70 C70    10.5048    -1.1025     0.1936 C
71 H71    10.6204    -1.1387     1.2809 H
72 H72    10.6860    -2.1121    -0.1977 H
73 C73    11.5850    -0.1889    -0.3380 C
74 O74    12.5210     0.2370     0.3023 O
75 O75    11.4046     0.0990    -1.6471 O
76 H76    12.1439     0.6820    -1.9097 H
@<TRIPOS>BOND
1 1 7 Ar
2 1 9 Ar
3 1 45 1
4 2 12 Ar
5 2 14 Ar
6 2 34 1
7 3 17 Ar
8 3 19 Ar
9 3 24 1
10 4 5 Ar
11 4 8 Ar
12 4 22 Ar
13 5 6 Ar
14 5 57 1
15 6 7 Ar
16 6 63 1
17 7 8 Ar
18 8 56 1
19 9 10 Ar
20 9 13 1
21 10 11 2
22 10 58 1
23 11 12 Ar
24 11 59 1
25 12 13 1
26 13 56 1
27 14 15 Ar
28 14 18 1
29 15 16 2
30 15 60 1
31 16 17 Ar
32 16 61 1
33 17 18 1
34 18 56 1
35 19 20 Ar
36 19 23 Ar
37 20 21 Ar
38 20 62 1
39 21 22 Ar
40 21 64 1
41 22 23 Ar
42 23 56 1
43 24 25 Ar
44 24 29 Ar
45 25 26 2
46 25 30 1
47 26 27 Ar
48 26 31 1
49 27 28 Ar
50 27 65 Ar
51 28 29 Ar
52 28 32 1
53 29 33 1
54 34 35 Ar
55 34 39 Ar
56 35 36 Ar
57 35 40 1
58 36 37 Ar
59 36 41 1
60 37 38 Ar
61 37 42 1
62 38 39 Ar
63 38 43 1
64 39 44 1
65 45 46 Ar
66 45 50 Ar
67 46 47 Ar
68 46 51 1
69 47 48 Ar
70 47 52 1
71 48 49 Ar
72 48 53 1
73 49 50 Ar
74 49 54 1
75 50 55 1
76 65 66 1
77 65 67 1
78 67 68 1
79 67 69 1
80 67 70 1
81 70 71 1
82 70 72 1
83 70 73 1
84 73 74 2
85 73 75 1
86 75 76 1
