# 14_H3
# Created by GaussView 6.0.16
#

#
#

@<TRIPOS>MOLECULE
Molecule Name
76 83
SMALL
NO_CHARGES


@<TRIPOS>ATOM
1 C1     3.4890    -1.0464    -0.0318 C
2 C2    -0.0007     2.4048    -0.1232 C
3 C3    -3.3782    -1.1911    -0.0860 C
4 C4     0.8270    -3.4427    -0.0395 C
5 C5     1.9028    -4.3774    -0.0266 C
6 C6     3.0879    -3.6575    -0.0495 C
7 C7     2.7581    -2.2605    -0.0512 C
8 N8     1.3989    -2.2020    -0.0706 N
9 C9     2.8468     0.2262    -0.0324 C
10 C10     3.5081     1.5109     0.1281 C
11 C11     2.5335     2.4620     0.1212 C
12 C12     1.2646     1.7660    -0.0447 C
13 N13     1.4844     0.4192    -0.1108 N
14 C14    -1.2630     1.7825    -0.1953 C
15 C15    -2.5460     2.3615    -0.4539 C
16 C16    -3.4896     1.3577    -0.4467 C
17 C17    -2.8335     0.1103    -0.2029 C
18 N18    -1.4832     0.4262    -0.0712 N
19 C19    -2.5705    -2.3495     0.0215 C
20 C20    -2.8067    -3.7058     0.3827 C
21 C21    -1.5915    -4.3890     0.3676 C
22 C22    -0.5835    -3.4778    -0.0144 C
23 N23    -1.2125    -2.2606    -0.2229 N
24 H24     1.7972    -5.4531    -0.0260 H
25 H25     4.5670     1.6749     0.2657 H
26 H26     2.6721     3.5260     0.2501 H
27 H27    -2.7300     3.4056    -0.6618 H
28 H28    -4.5475     1.4819    -0.6236 H
29 H29     4.0846    -4.0731    -0.0728 H
30 H30    -1.4304    -5.4173     0.6604 H
31 H31    -0.7916    -0.1683     0.3626 H
32 H32    -0.8617    -1.6126    -0.9194 H
33 H33    -3.7588    -4.1267     0.6702 H
34 C34    -4.8467    -1.3588    -0.0653 C
35 C35    -5.4915    -2.0163     0.9991 C
36 C36    -5.6594    -0.8921    -1.1143 C
37 C37    -6.8603    -2.1885     0.9861 C
38 H38    -4.9322    -2.3719     1.8553 H
39 C39    -7.0245    -1.0908    -1.0825 C
40 H40    -5.2254    -0.3987    -1.9751 H
41 N41    -7.6089    -1.7344    -0.0456 N
42 H42    -7.3985    -2.6754     1.7899 H
43 H43    -7.6836    -0.7657    -1.8781 H
44 C44     4.9577    -1.1340     0.0038 C
45 C45     5.7724    -0.3824    -0.8648 C
46 C46     5.6151    -2.0060     0.8956 C
47 C47     7.1451    -0.5136    -0.8264 C
48 H48     5.3355     0.2851    -1.5966 H
49 C49     6.9895    -2.1000     0.8969 C
50 H50     5.0536    -2.5890     1.6145 H
51 N51     7.7404    -1.3615     0.0446 N
52 H52     7.8023     0.0326    -1.4923 H
53 H53     7.5311    -2.7485     1.5750 H
54 C54    -9.0642    -1.9940    -0.0643 C
55 H55    -9.2486    -2.9593    -0.5421 H
56 H56    -9.4332    -2.0068     0.9605 H
57 H57    -9.5588    -1.2005    -0.6230 H
58 C58     9.2100    -1.5229     0.0522 C
59 H59     9.5576    -1.5558     1.0851 H
60 H60     9.4716    -2.4511    -0.4615 H
61 H61     9.6650    -0.6757    -0.4591 H
62 C62    -0.0080     3.8917    -0.1670 C
63 C63    -0.6974     4.6177     0.7987 C
64 C64     0.6683     4.6162    -1.1641 C
65 N65    -0.7225     5.9703     0.7813 N
66 H66    -1.2338     4.1406     1.6100 H
67 C67     0.6332     6.0070    -1.1634 C
68 H68     1.2064     4.0800    -1.9384 H
69 C69    -0.0744     6.6709    -0.1753 C
70 H70     1.1390     6.5847    -1.9279 H
71 H71    -0.1461     7.7492    -0.1173 H
72 C72    -1.4487     6.6801     1.8594 C
73 H73    -1.4742     7.7440     1.6299 H
74 H74    -2.4659     6.2906     1.9184 H
75 H75    -0.9272     6.5169     2.8047 H
76 H76     0.9620    -1.2742    -0.0338 H
@<TRIPOS>BOND
1 1 7 Ar
2 1 9 Ar
3 1 44 1
4 2 12 Ar
5 2 14 Ar
6 2 62 1
7 3 17 Ar
8 3 19 Ar
9 3 34 1
10 4 5 Ar
11 4 8 Ar
12 4 22 Ar
13 5 6 Ar
14 5 24 1
15 6 7 Ar
16 6 29 1
17 7 8 Ar
18 8 76 1
19 9 10 1
20 9 13 Ar
21 10 11 2
22 10 25 1
23 11 12 1
24 11 26 1
25 12 13 Ar
26 14 15 Ar
27 14 18 Ar
28 15 16 2
29 15 27 1
30 16 17 Ar
31 16 28 1
32 17 18 1
33 18 31 1
34 19 20 Ar
35 19 23 1
36 20 21 Ar
37 20 33 1
38 21 22 Ar
39 21 30 1
40 22 23 1
41 23 32 1
42 34 35 Ar
43 34 36 Ar
44 35 37 2
45 35 38 1
46 36 39 2
47 36 40 1
48 37 41 Ar
49 37 42 1
50 39 41 Ar
51 39 43 1
52 41 54 1
53 44 45 Ar
54 44 46 Ar
55 45 47 2
56 45 48 1
57 46 49 2
58 46 50 1
59 47 51 Ar
60 47 52 1
61 49 51 Ar
62 49 53 1
63 51 58 1
64 54 55 1
65 54 56 1
66 54 57 1
67 58 59 1
68 58 60 1
69 58 61 1
70 62 63 Ar
71 62 64 Ar
72 63 65 Ar
73 63 66 1
74 64 67 Ar
75 64 68 1
76 65 69 Ar
77 65 72 1
78 67 69 2
79 67 70 1
80 69 71 1
81 72 73 1
82 72 74 1
83 72 75 1
