# F15_Br_OPT
# Created by GaussView 6.0.16
#

#
#

@<TRIPOS>MOLECULE
Molecule Name
67 74
SMALL
NO_CHARGES


@<TRIPOS>ATOM
1 C1     3.4496    -0.8751    -0.0843 C
2 C2     0.1190     2.7524     0.0668 C
3 C3    -3.4049    -0.6341    -0.1113 C
4 C4     0.6300    -3.1444    -0.2791 C
5 C5     1.5798    -4.0376     0.2594 C
6 C6     2.7949    -3.3494     0.4002 C
7 C7     2.6162    -2.0175    -0.0499 C
8 N8     1.2995    -1.9476    -0.4571 N
9 C9     2.9193     0.4183    -0.2005 C
10 C10     3.5545     1.6434    -0.5861 C
11 C11     2.6208     2.6595    -0.5677 C
12 C12     1.3486     2.1141    -0.1541 C
13 N13     1.5839     0.7599     0.0085 N
14 C14    -1.1464     2.1238     0.2416 C
15 C15    -2.4064     2.7992     0.5674 C
16 C16    -3.3998     1.8657     0.4676 C
17 C17    -2.7687     0.6017     0.1169 C
18 N18    -1.4043     0.8054     0.0258 N
19 C19    -2.6871    -1.8245    -0.3535 C
20 C20    -3.0496    -3.1946    -0.5447 C
21 C21    -1.8785    -3.9544    -0.5710 C
22 C22    -0.7808    -3.0705    -0.4002 C
23 N23    -1.3215    -1.8155    -0.3220 N
24 C24    -4.8858    -0.7512    -0.0584 C
25 C25    -5.6680    -0.5322    -1.1899 C
26 C26    -7.0494    -0.6754    -1.1600 C
27 C27    -7.6714    -1.0508     0.0275 C
28 C28    -6.9123    -1.2833     1.1712 C
29 C29    -5.5329    -1.1358     1.1143 C
30 F30    -5.0877    -0.1741    -2.3421 F
31 F31    -7.7819    -0.4591    -2.2582 F
32 F32    -8.9983    -1.1912     0.0698 F
33 F33    -7.5141    -1.6479     2.3089 F
34 F34    -4.8179    -1.3669     2.2227 F
35 C35     4.9107    -1.0690     0.0261 C
36 C36     5.6362    -0.5434     1.0984 C
37 C37     7.0050    -0.7402     1.2232 C
38 C38     7.6808    -1.4839     0.2592 C
39 C39     6.9849    -2.0233    -0.8196 C
40 C40     5.6165    -1.8132    -0.9225 C
41 F41     5.0118     0.1780     2.0379 F
42 F42     7.6757    -0.2242     2.2583 F
43 F43     8.9957    -1.6794     0.3686 F
44 F44     7.6363    -2.7367    -1.7440 F
45 F45     4.9703    -2.3419    -1.9697 F
46 H46     0.9894    -1.2569    -1.1316 H
47 H47     0.9457     0.1871     0.5466 H
48 H48    -0.8578    -0.9203    -0.1252 H
49 Br49    -4.7641    -3.9114    -0.7572 Br
50 Br50    -1.8004    -5.7913    -0.8966 Br
51 Br51     1.2682    -5.7639     0.8970 Br
52 Br52     4.3144    -4.0655     1.2237 Br
53 Br53     5.3113     1.8442    -1.2002 Br
54 Br54     3.0187     4.3946    -1.1525 Br
55 Br55    -5.2123     2.2409     0.7806 Br
56 Br56    -2.7292     4.5588     1.1498 Br
57 C57     0.1509     4.2398     0.0526 C
58 C58    -0.3276     4.9582    -1.0427 C
59 C59     0.6731     4.9643     1.1224 C
60 C60    -0.2908     6.3451    -1.0793 C
61 C61     0.7177     6.3520     1.1131 C
62 C62     0.2334     7.0427     0.0057 C
63 F63    -0.8360     4.3064    -2.0960 F
64 F64    -0.7533     7.0137    -2.1416 F
65 F65     0.2721     8.3769    -0.0166 F
66 F66     1.2215     7.0268     2.1526 F
67 F67     1.1504     4.3194     2.1952 F
@<TRIPOS>BOND
1 1 7 Ar
2 1 9 Ar
3 1 35 1
4 2 12 Ar
5 2 14 Ar
6 2 57 1
7 3 17 Ar
8 3 19 Ar
9 3 24 1
10 4 5 Ar
11 4 8 1
12 4 22 Ar
13 5 6 Ar
14 5 51 1
15 6 7 Ar
16 6 52 1
17 7 8 Ar
18 8 46 1
19 9 10 Ar
20 9 13 1
21 10 11 2
22 10 53 1
23 11 12 Ar
24 11 54 1
25 12 13 1
26 13 47 1
27 14 15 1
28 14 18 Ar
29 15 16 2
30 15 56 1
31 16 17 1
32 16 55 1
33 17 18 1
34 19 20 Ar
35 19 23 Ar
36 20 21 Ar
37 20 49 1
38 21 22 Ar
39 21 50 1
40 22 23 Ar
41 23 48 1
42 24 25 Ar
43 24 29 Ar
44 25 26 Ar
45 25 30 1
46 26 27 Ar
47 26 31 1
48 27 28 Ar
49 27 32 1
50 28 29 Ar
51 28 33 1
52 29 34 1
53 35 36 Ar
54 35 40 Ar
55 36 37 Ar
56 36 41 1
57 37 38 Ar
58 37 42 1
59 38 39 Ar
60 38 43 1
61 39 40 Ar
62 39 44 1
63 40 45 1
64 57 58 Ar
65 57 59 Ar
66 58 60 Ar
67 58 63 1
68 59 61 Ar
69 59 67 1
70 60 62 Ar
71 60 64 1
72 61 62 Ar
73 61 66 1
74 62 65 1
