# F15_ME2_OPT
# Created by GaussView 6.0.16
#

#
#

@<TRIPOS>MOLECULE
Molecule Name
73 80
SMALL
NO_CHARGES


@<TRIPOS>ATOM
1 C1     3.4033    -1.3125    -0.0200 C
2 C2    -0.0460     2.1881     0.0693 C
3 C3    -3.5012    -1.2480    -0.1118 C
4 C4     0.6293    -3.5941    -0.2631 C
5 C5     1.4983    -4.4040     0.5004 C
6 C6     2.7061    -3.7234     0.6427 C
7 C7     2.5888    -2.4764    -0.0185 C
8 N8     1.3413    -2.4607    -0.6335 N
9 C9     2.8435    -0.0271    -0.0744 C
10 C10     3.3797     1.1743    -0.6343 C
11 C11     2.3966     2.1327    -0.6139 C
12 C12     1.2141     1.5684    -0.0315 C
13 N13     1.5357     0.2691     0.3438 N
14 C14    -1.3162     1.5509     0.1244 C
15 C15    -2.5886     2.2372     0.3325 C
16 C16    -3.5650     1.2911     0.2555 C
17 C17    -2.8973     0.0216     0.0108 C
18 N18    -1.5376     0.2274    -0.0664 N
19 C19    -2.7410    -2.4273    -0.3087 C
20 C20    -3.0382    -3.8189    -0.1970 C
21 C21    -1.8344    -4.5161    -0.2215 C
22 C22    -0.7862    -3.5663    -0.3692 C
23 N23    -1.3865    -2.3418    -0.4693 N
24 C24    -4.9693    -1.3933     0.0330 C
25 C25    -5.7429    -1.9647    -0.9845 C
26 C26    -7.1184    -2.1308    -0.8668 C
27 C27    -7.0261    -1.1498     1.3276 C
28 C28    -5.6497    -1.0034     1.1924 C
29 C29     4.8831    -1.4653     0.0107 C
30 C30     5.5553    -1.8062     1.1854 C
31 C31     6.9350    -1.9779     1.2249 C
32 C32     7.0432    -1.4446    -1.1219 C
33 C33     5.6605    -1.2957    -1.1361 C
34 C34    -0.0260     3.6735     0.0059 C
35 C35     0.6650     4.4290     0.9611 C
36 C36     0.7157     5.8177     0.9147 C
37 C37    -0.6361     5.7769    -1.0761 C
38 C38    -0.6659     4.3878    -1.0140 C
39 H39     1.2144    -5.3257     0.9901 H
40 H40     3.5396    -4.0158     1.2654 H
41 H41     4.3499     1.2532    -1.1031 H
42 H42     2.4474     3.1194    -1.0526 H
43 H43    -2.7151     3.2936     0.5266 H
44 H44    -4.6308     1.4424     0.3581 H
45 H45    -4.0264    -4.2412    -0.0783 H
46 H46    -1.7017    -5.5868    -0.1467 H
47 H47    -0.9609    -1.4061    -0.4063 H
48 C48     7.6816    -1.7902     0.0656 C
49 C49    -7.7638    -1.7186     0.2945 C
50 C50     0.0593     6.4950    -0.1081 C
51 F51     0.0980     7.8297    -0.1618 F
52 F52     1.3813     6.5062     1.8511 F
53 F53     1.2996     3.8164     1.9721 F
54 F54    -1.3218     3.7360    -1.9847 F
55 F55    -1.2554     6.4260    -2.0706 F
56 F56     5.0719    -0.9607    -2.2977 F
57 F57     7.7596    -1.2663    -2.2385 F
58 F58     9.0087    -1.9438     0.0926 F
59 F59     7.5477    -2.3124     2.3670 F
60 F60     4.8598    -1.9987     2.3191 F
61 F61    -4.9772    -0.4808     2.2284 F
62 F62    -7.6418    -0.7652     2.4528 F
63 F63    -9.0860    -1.8683     0.4173 F
64 F64    -7.8251    -2.6730    -1.8666 F
65 F65    -5.1627    -2.3647    -2.1256 F
66 C66     1.0605    -1.6842    -1.8479 C
67 H67     0.4810    -2.3047    -2.5331 H
68 H68     0.5116    -0.7641    -1.6428 H
69 H69     2.0118    -1.4272    -2.3163 H
70 C70     0.9321    -0.3778     1.5119 C
71 H71     0.5453     0.3983     2.1756 H
72 H72     0.1124    -1.0417     1.2498 H
73 H73     1.7079    -0.9409     2.0322 H
@<TRIPOS>BOND
1 1 7 Ar
2 1 9 Ar
3 1 29 1
4 2 12 Ar
5 2 14 Ar
6 2 34 1
7 3 17 Ar
8 3 19 Ar
9 3 24 1
10 4 5 Ar
11 4 8 1
12 4 22 Ar
13 5 6 Ar
14 5 39 1
15 6 7 Ar
16 6 40 1
17 7 8 1
18 8 66 1
19 9 10 Ar
20 9 13 1
21 10 11 2
22 10 41 1
23 11 12 Ar
24 11 42 1
25 12 13 1
26 13 70 1
27 14 15 1
28 14 18 Ar
29 15 16 2
30 15 43 1
31 16 17 1
32 16 44 1
33 17 18 Ar
34 19 20 Ar
35 19 23 Ar
36 20 21 Ar
37 20 45 1
38 21 22 Ar
39 21 46 1
40 22 23 Ar
41 23 47 1
42 24 25 Ar
43 24 28 Ar
44 25 26 Ar
45 25 65 1
46 26 49 Ar
47 26 64 1
48 27 28 Ar
49 27 49 Ar
50 27 62 1
51 28 61 1
52 29 30 Ar
53 29 33 Ar
54 30 31 Ar
55 30 60 1
56 31 48 Ar
57 31 59 1
58 32 33 Ar
59 32 48 Ar
60 32 57 1
61 33 56 1
62 34 35 Ar
63 34 38 Ar
64 35 36 Ar
65 35 53 1
66 36 50 Ar
67 36 52 1
68 37 38 Ar
69 37 50 Ar
70 37 55 1
71 38 54 1
72 48 58 1
73 49 63 1
74 50 51 1
75 66 67 1
76 66 68 1
77 66 69 1
78 70 71 1
79 70 72 1
80 70 73 1
