# F15C_OPT
# Created by GaussView 6.0.16
#

#
#

@<TRIPOS>MOLECULE
Molecule Name
67 74
SMALL
NO_CHARGES


@<TRIPOS>ATOM
1 C1     3.3465    -1.4505    -0.0121 C
2 C2     0.0308     2.1949    -0.0580 C
3 C3    -3.3839    -1.3534    -0.0470 C
4 C4     0.6647    -3.8374    -0.0411 C
5 C5     1.7153    -4.7831    -0.1036 C
6 C6     2.9174    -4.0687    -0.1052 C
7 C7     2.5958    -2.6553    -0.0370 C
8 N8     1.2278    -2.5859    -0.0022 N
9 C9     2.7845    -0.1582    -0.0155 C
10 C10     3.5033     1.0905     0.0226 C
11 C11     2.5913     2.1145     0.0077 C
12 C12     1.2759     1.5333    -0.0387 C
13 N13     1.4272     0.1577    -0.0506 N
14 C14    -1.2347     1.5672    -0.0682 C
15 C15    -2.5302     2.1898    -0.1257 C
16 C16    -3.4747     1.1951    -0.1217 C
17 C17    -2.7963    -0.0730    -0.0614 C
18 N18    -1.4268     0.1986    -0.0339 N
19 C19    -2.6480    -2.5636    -0.0372 C
20 C20    -3.0440    -3.9363    -0.0005 C
21 C21    -1.8758    -4.7003    -0.0090 C
22 C22    -0.7653    -3.8086    -0.0406 C
23 N23    -1.2784    -2.5425    -0.0613 N
24 C24    -4.8659    -1.4476    -0.0348 C
25 C25    -5.5659    -2.0684    -1.0734 C
26 C26    -6.9515    -2.1771    -1.0675 C
27 C27    -7.6779    -1.6523    -0.0043 C
28 C28    -7.0124    -1.0273     1.0447 C
29 C29    -5.6257    -0.9383     1.0225 C
30 F30    -4.9022    -2.5752    -2.1243 F
31 F31    -7.5895    -2.7744    -2.0827 F
32 F32    -9.0112    -1.7484     0.0097 F
33 F33    -7.7088    -0.5267     2.0740 F
34 F34    -5.0194    -0.3440     2.0626 F
35 C35     0.0504     3.6827    -0.0674 C
36 C36    -0.4714     4.4279     0.9934 C
37 C37    -0.4681     5.8176     0.9924 C
38 C38     0.0796     6.5022    -0.0870 C
39 C39     0.6131     5.7915    -1.1566 C
40 C40     0.5882     4.4018    -1.1382 C
41 F41    -0.9981     3.8025     2.0586 F
42 F42    -0.9768     6.4997     2.0276 F
43 F43     0.0946     7.8391    -0.0954 F
44 F44     1.1372     6.4482    -2.2002 F
45 F45     1.1028     3.7508    -2.1937 F
46 C46     4.8310    -1.5179     0.0709 C
47 C47     5.6460    -1.3076    -1.0406 C
48 C48     7.0288    -1.4053    -0.9630 C
49 C49     7.6319    -1.7260     0.2494 C
50 C50     6.8474    -1.9347     1.3778 C
51 C51     5.4723    -1.8047     1.2688 C
52 F52     5.0933    -1.0286    -2.2288 F
53 F53     7.7857    -1.2143    -2.0518 F
54 F54     8.9615    -1.8406     0.3273 F
55 F55     7.4112    -2.2620     2.5481 F
56 F56     4.7302    -2.0071     2.3960 F
57 H57     1.6109    -5.8546    -0.1768 H
58 H58     4.5797     1.1831     0.0617 H
59 H59     2.8054     3.1734     0.0400 H
60 H60    -2.7090     3.2542    -0.1805 H
61 H61    -4.5470     1.3221    -0.1749 H
62 H62    -4.0544    -4.3186     0.0229 H
63 H63     0.6796    -0.5059    -0.0797 H
64 H64    -0.7263    -1.7092    -0.0902 H
65 H65     0.7068    -1.7337     0.0454 H
66 H66    -1.8236    -5.7690     0.0057 H
67 H67     3.9001    -4.4896    -0.1491 H
@<TRIPOS>BOND
1 1 7 Ar
2 1 9 Ar
3 1 46 1
4 2 12 Ar
5 2 14 Ar
6 2 35 1
7 3 17 Ar
8 3 19 Ar
9 3 24 1
10 4 5 Ar
11 4 8 Ar
12 4 22 Ar
13 5 6 Ar
14 5 57 1
15 6 7 1
16 6 67 1
17 7 8 Ar
18 8 65 1
19 9 10 Ar
20 9 13 1
21 10 11 2
22 10 58 1
23 11 12 Ar
24 11 59 1
25 12 13 1
26 13 63 1
27 14 15 Ar
28 14 18 1
29 15 16 2
30 15 60 1
31 16 17 Ar
32 16 61 1
33 17 18 1
34 19 20 Ar
35 19 23 Ar
36 20 21 Ar
37 20 62 1
38 21 22 Ar
39 21 66 1
40 22 23 Ar
41 23 64 1
42 24 25 Ar
43 24 29 Ar
44 25 26 Ar
45 25 30 1
46 26 27 Ar
47 26 31 1
48 27 28 Ar
49 27 32 1
50 28 29 Ar
51 28 33 1
52 29 34 1
53 35 36 Ar
54 35 40 Ar
55 36 37 Ar
56 36 41 1
57 37 38 Ar
58 37 42 1
59 38 39 Ar
60 38 43 1
61 39 40 Ar
62 39 44 1
63 40 45 1
64 46 47 Ar
65 46 51 Ar
66 47 48 Ar
67 47 52 1
68 48 49 Ar
69 48 53 1
70 49 50 Ar
71 49 54 1
72 50 51 2
73 50 55 1
74 51 56 1
