# Ga_tpfc_py_TD
# Created by GaussView 6.0.16
#

#
#

@<TRIPOS>MOLECULE
Molecule Name
68 78
SMALL
NO_CHARGES


@<TRIPOS>ATOM
1 C1    -3.4719    -1.4439    -0.0325 C
2 C2    -0.4831     2.4725    -0.0380 C
3 C3     3.2280    -0.7783    -0.0064 C
4 C4    -0.6001    -3.5826     0.0080 C
5 C5    -1.5929    -4.6026     0.0515 C
6 C6    -2.8323    -3.9724     0.0417 C
7 C7    -2.6052    -2.5569    -0.0080 C
8 N8    -1.2468    -2.3766    -0.0259 N
9 C9    -3.0353    -0.1006    -0.0529 C
10 C10    -3.8509     1.0793    -0.1101 C
11 C11    -3.0256     2.1769    -0.1123 C
12 C12    -1.6715     1.7081    -0.0578 C
13 N13    -1.7053     0.3246    -0.0287 N
14 C14     0.8253     1.9544    -0.0176 C
15 C15     2.0643     2.6778     0.0569 C
16 C16     3.0854     1.7650     0.0736 C
17 C17     2.5184     0.4421     0.0012 C
18 N18     1.1331     0.6023    -0.0483 N
19 C19     2.6136    -2.0587    -0.0503 C
20 C20     3.0911    -3.4276    -0.0718 C
21 C21     1.9697    -4.2656    -0.0129 C
22 C22     0.8231    -3.4473     0.0033 C
23 N23     1.2482    -2.1383    -0.0100 N
24 C24     4.7061    -0.6792     0.1010 C
25 C25     5.3794    -1.1625     1.2244 C
26 C26     6.7639    -1.1090     1.3332 C
27 C27     7.5113    -0.5538     0.2989 C
28 C28     6.8690    -0.0590    -0.8322 C
29 C29     5.4834    -0.1292    -0.9196 C
30 F30     4.6896    -1.7254     2.2281 F
31 F31     7.3816    -1.5849     2.4214 F
32 F32     8.8433    -0.4938     0.3931 F
33 F33     7.5885     0.4714    -1.8294 F
34 F34     4.8984     0.3396    -2.0314 F
35 C35    -0.6284     3.9536    -0.0354 C
36 C36    -0.1747     4.7344    -1.1032 C
37 C37    -0.2987     6.1200    -1.1095 C
38 C38    -0.9020     6.7609    -0.0315 C
39 C39    -1.3695     6.0127     1.0447 C
40 C40    -1.2241     4.6293     1.0342 C
41 F41     0.4028     4.1509    -2.1632 F
42 F42     0.1480     6.8374    -2.1471 F
43 F43    -1.0310     8.0902    -0.0292 F
44 F44    -1.9439     6.6273     2.0854 F
45 F45    -1.6750     3.9434     2.0941 F
46 C46    -4.9346    -1.7069    -0.0401 C
47 C47    -5.7642    -1.2916     1.0068 C
48 C48    -7.1327    -1.5408     1.0065 C
49 C49    -7.7055    -2.2347    -0.0552 C
50 C50    -6.9069    -2.6676    -1.1094 C
51 C51    -5.5421    -2.3994    -1.0928 C
52 F52    -5.2478    -0.6329     2.0539 F
53 F53    -7.8979    -1.1284     2.0239 F
54 F54    -9.0174    -2.4838    -0.0621 F
55 F55    -7.4556    -3.3296    -2.1347 F
56 F56    -4.8085    -2.8201    -2.1330 F
57 Ga57    -0.1542    -0.7987    -0.0299 Ga
58 H58    -1.4088    -5.6680     0.0875 H
59 H59    -4.9305     1.0857    -0.1560 H
60 H60    -3.3267     3.2135    -0.1583 H
61 H61     2.1563     3.7532     0.1085 H
62 H62     4.1409     1.9838     0.1408 H
63 H63    -3.7992    -4.4556     0.0710 H
64 H64     2.0018    -5.3458    -0.0174 H
65 C65     4.4289    -4.0299    -0.2018 C
66 O66     4.7101    -5.1439     0.2006 O
67 O67     5.3233    -3.2763    -0.8855 O
68 H68     6.1471    -3.8015    -0.9109 H
@<TRIPOS>BOND
1 1 7 Ar
2 1 9 Ar
3 1 46 1
4 2 12 Ar
5 2 14 Ar
6 2 35 1
7 3 17 Ar
8 3 19 Ar
9 3 24 1
10 4 5 Ar
11 4 8 Ar
12 4 22 Ar
13 5 6 Ar
14 5 58 1
15 6 7 Ar
16 6 63 1
17 7 8 Ar
18 8 57 1
19 9 10 Ar
20 9 13 1
21 10 11 2
22 10 59 1
23 11 12 Ar
24 11 60 1
25 12 13 1
26 13 57 1
27 14 15 Ar
28 14 18 1
29 15 16 2
30 15 61 1
31 16 17 Ar
32 16 62 1
33 17 18 1
34 18 57 1
35 19 20 1
36 19 23 Ar
37 20 21 Ar
38 20 65 1
39 21 22 Ar
40 21 64 1
41 22 23 Ar
42 23 57 1
43 24 25 Ar
44 24 29 Ar
45 25 26 Ar
46 25 30 1
47 26 27 Ar
48 26 31 1
49 27 28 Ar
50 27 32 1
51 28 29 Ar
52 28 33 1
53 29 34 1
54 35 36 Ar
55 35 40 Ar
56 36 37 Ar
57 36 41 1
58 37 38 Ar
59 37 42 1
60 38 39 Ar
61 38 43 1
62 39 40 Ar
63 39 44 1
64 40 45 1
65 46 47 Ar
66 46 51 Ar
67 47 48 Ar
68 47 52 1
69 48 49 Ar
70 48 53 1
71 49 50 Ar
72 49 54 1
73 50 51 Ar
74 50 55 1
75 51 56 1
76 65 66 2
77 65 67 1
78 67 68 1
