# F17_2CF3
# Created by GaussView 6.0.16
#

#
#

@<TRIPOS>MOLECULE
Molecule Name
73 83
SMALL
NO_CHARGES


@<TRIPOS>ATOM
1 C1     3.3536    -0.7381    -0.0181 C
2 C2    -0.0020     2.8334    -0.0114 C
3 C3    -3.3513    -0.7427     0.0112 C
4 C4     0.7010    -3.1080    -0.0693 C
5 C5     1.7514    -4.0365    -0.1022 C
6 C6     2.9309    -3.3046    -0.0880 C
7 C7     2.5937    -1.9108    -0.0418 C
8 N8     1.2173    -1.8364    -0.0355 N
9 C9     2.7346     0.5055    -0.0070 C
10 C10     3.4302     1.7537    -0.0101 C
11 C11     2.5083     2.7570    -0.0250 C
12 C12     1.2132     2.1578    -0.0177 C
13 N13     1.3546     0.7741    -0.0092 N
14 C14    -1.2162     2.1559     0.0006 C
15 C15    -2.5119     2.7532     0.0351 C
16 C16    -3.4323     1.7483     0.0434 C
17 C17    -2.7345     0.5017     0.0158 C
18 N18    -1.3553     0.7723    -0.0095 N
19 C19    -2.5903    -1.9137    -0.0251 C
20 C20    -2.9266    -3.3079    -0.0460 C
21 C21    -1.7468    -4.0389    -0.0740 C
22 C22    -0.6969    -3.1088    -0.0674 C
23 N23    -1.2142    -1.8376    -0.0408 N
24 C24    -4.8363    -0.7822     0.0706 C
25 C25    -5.6105    -0.9212    -1.0803 C
26 C26    -6.9994    -0.9675    -1.0252 C
27 C27    -7.6397    -0.8636     0.2055 C
28 C28    -6.8918    -0.7152     1.3704 C
29 C29    -5.5052    -0.6761     1.2913 C
30 C30     4.8398    -0.7752    -0.0109 C
31 C31     5.5520    -1.0187     1.1631 C
32 C32     6.9415    -1.0690     1.1785 C
33 C33     7.6475    -0.8579    -0.0014 C
34 C34     6.9633    -0.6017    -1.1866 C
35 C35     5.5744    -0.5632    -1.1791 C
36 C36    -0.0044     4.3197    -0.0128 C
37 C37     0.5049     5.0542     1.0627 C
38 C38     0.5135     6.4449     1.0680 C
39 C39    -0.0112     7.1393    -0.0178 C
40 C40    -0.5329     6.4386    -1.1010 C
41 C41    -0.5181     5.0479    -1.0905 C
42 H42     4.5059     1.8472    -0.0031 H
43 H43     2.6916     3.8204    -0.0436 H
44 P44     0.0006    -0.4578    -0.0216 P
45 F45     0.0029    -0.4357    -1.6608 F
46 F46    -0.0017    -0.4711     1.6173 F
47 F47     8.9820    -0.8994     0.0023 F
48 F48     7.6444    -0.3981    -2.3203 F
49 F49     4.9386    -0.3187    -2.3320 F
50 F50     7.5997    -1.3147     2.3168 F
51 F51     4.8964    -1.2282     2.3103 F
52 F52    -5.0177    -1.0290    -2.2747 F
53 F53    -7.7195    -1.1112    -2.1434 F
54 F54    -8.9725    -0.9050     0.2710 F
55 F55    -7.5105    -0.6157     2.5527 F
56 F56    -4.8055    -0.5402     2.4248 F
57 F57    -1.0331     7.1037    -2.1480 F
58 F58    -1.0230     4.4059    -2.1528 F
59 F59    -0.0141     8.4740    -0.0203 F
60 F60     1.0105     7.1161     2.1127 F
61 F61     1.0119     4.4185     2.1279 F
62 H62    -1.6498    -5.1137    -0.0955 H
63 H63     1.6548    -5.1112    -0.1354 H
64 H64    -4.5084     1.8378     0.0638 H
65 H65    -2.6957     3.8166     0.0593 H
66 C66    -4.2728    -3.9511    -0.0740 C
67 C67     4.2763    -3.9503    -0.1022 C
68 F68    -5.0586    -3.5831     0.9655 F
69 F69    -4.9613    -3.6612    -1.2056 F
70 F70    -4.1585    -5.2951    -0.0217 F
71 F71     4.1605    -5.2847    -0.2696 F
72 F72     4.9571    -3.7607     1.0549 F
73 F73     5.0701    -3.4962    -1.1007 F
@<TRIPOS>BOND
1 1 7 Ar
2 1 9 Ar
3 1 30 1
4 2 12 Ar
5 2 14 Ar
6 2 36 1
7 3 17 Ar
8 3 19 Ar
9 3 24 1
10 4 5 Ar
11 4 8 Ar
12 4 22 Ar
13 5 6 Ar
14 5 63 1
15 6 7 Ar
16 6 67 1
17 7 8 Ar
18 8 44 1
19 9 10 Ar
20 9 13 1
21 10 11 2
22 10 42 1
23 11 12 Ar
24 11 43 1
25 12 13 1
26 13 44 1
27 14 15 Ar
28 14 18 1
29 15 16 2
30 15 65 1
31 16 17 Ar
32 16 64 1
33 17 18 1
34 18 44 1
35 19 20 Ar
36 19 23 Ar
37 20 21 Ar
38 20 66 1
39 21 22 Ar
40 21 62 1
41 22 23 Ar
42 23 44 1
43 24 25 Ar
44 24 29 Ar
45 25 26 Ar
46 25 52 1
47 26 27 Ar
48 26 53 1
49 27 28 Ar
50 27 54 1
51 28 29 Ar
52 28 55 1
53 29 56 1
54 30 31 Ar
55 30 35 Ar
56 31 32 Ar
57 31 51 1
58 32 33 Ar
59 32 50 1
60 33 34 Ar
61 33 47 1
62 34 35 Ar
63 34 48 1
64 35 49 1
65 36 37 Ar
66 36 41 Ar
67 37 38 Ar
68 37 61 1
69 38 39 Ar
70 38 60 1
71 39 40 Ar
72 39 59 1
73 40 41 Ar
74 40 57 1
75 41 58 1
76 44 45 1
77 44 46 1
78 66 68 1
79 66 69 1
80 66 70 1
81 67 71 1
82 67 72 1
83 67 73 1
