# F17_3CF3
# Created by GaussView 6.0.16
#

#
#

@<TRIPOS>MOLECULE
Molecule Name
76 86
SMALL
NO_CHARGES


@<TRIPOS>ATOM
1 C1    -3.0508     0.1700     0.2436 C
2 C2     0.7418     3.2422    -0.1022 C
3 C3     3.5552    -0.7443     0.0637 C
4 C4    -0.7857    -2.5414    -0.3229 C
5 C5    -1.9825    -3.2878    -0.3608 C
6 C6    -3.0266    -2.4094    -0.0482 C
7 C7    -2.4730    -1.1009     0.0755 C
8 N8    -1.1109    -1.2215    -0.0960 N
9 C9    -2.2670     1.3112     0.2183 C
10 C10    -2.7826     2.6479     0.2589 C
11 C11    -1.7409     3.5111     0.1213 C
12 C12    -0.5452     2.7361     0.0061 C
13 N13    -0.8719     1.3868     0.0733 N
14 C14     1.8550     2.4075    -0.0930 C
15 C15     3.2186     2.8302    -0.0638 C
16 C16     3.9954     1.7169     0.0511 C
17 C17     3.1378     0.5751     0.0530 C
18 N18     1.8051     1.0215    -0.0315 N
19 C19     2.6272    -1.7807    -0.0576 C
20 C20     2.8235    -3.1762    -0.0911 C
21 C21     1.5842    -3.7837    -0.2363 C
22 C22     0.6145    -2.7451    -0.3135 C
23 N23     1.2792    -1.5436    -0.1933 N
24 C24     4.9964    -1.0806     0.1729 C
25 C25     5.4912    -1.7735     1.2822 C
26 C26     6.8325    -2.1249     1.3913 C
27 C27     7.7174    -1.7788     0.3744 C
28 C28     7.2558    -1.0886    -0.7426 C
29 C29     5.9088    -0.7551    -0.8353 C
30 C30    -4.5209     0.3658     0.3396 C
31 C31    -5.3370     0.2506    -0.7855 C
32 C32    -6.7135     0.4336    -0.7122 C
33 C33    -7.2969     0.7567     0.5087 C
34 C34    -6.5038     0.8954     1.6449 C
35 C35    -5.1317     0.7002     1.5491 C
36 C36     0.9304     4.7143    -0.1769 C
37 C37     0.5035     5.4436    -1.2905 C
38 C38     0.6598     6.8233    -1.3710 C
39 C39     1.2657     7.5079    -0.3216 C
40 C40     1.7033     6.8105     0.8007 C
41 C41     1.5251     5.4327     0.8643 C
42 H42    -3.8288     2.8905     0.3674 H
43 H43    -1.7721     4.5903     0.1142 H
44 P44     0.2854    -0.0209    -0.0545 P
45 F45     0.3369    -0.1311     1.5788 F
46 F46     0.2358     0.0997    -1.6870 F
47 F47    -8.6163     0.9400     0.5916 F
48 F48    -7.0668     1.2119     2.8166 F
49 F49    -4.3895     0.8345     2.6561 F
50 F50    -7.4743     0.3064    -1.8045 F
51 F51    -4.7975    -0.0544    -1.9719 F
52 F52     4.6649    -2.1187     2.2782 F
53 F53     7.2762    -2.7837     2.4662 F
54 F54     9.0068    -2.1063     0.4710 F
55 F55     8.1046    -0.7601    -1.7221 F
56 F56     5.4962    -0.1013    -1.9298 F
57 F57     2.2788     7.4680     1.8131 F
58 F58     1.9480     4.7923     1.9631 F
59 F59     1.4263     8.8307    -0.3913 F
60 F60     0.2392     7.4924    -2.4496 F
61 F61    -0.0830     4.8133    -2.3168 F
62 H62     5.0717     1.6709     0.1234 H
63 H63     3.5441     3.8581    -0.1126 H
64 C64    -4.4492    -2.8318     0.1826 C
65 F65    -4.5329    -4.1476     0.4541 F
66 F66    -5.2523    -2.5915    -0.8784 F
67 F67    -4.9902    -2.1946     1.2469 F
68 H68     3.7733    -3.6797     0.0040 H
69 C69     1.4384    -5.2708    -0.2034 C
70 C70    -2.1366    -4.6888    -0.8751 C
71 F71     2.5272    -5.8265     0.3807 F
72 F72     1.3444    -5.8246    -1.4302 F
73 F73     0.3653    -5.6611     0.5142 F
74 F74    -1.0710    -5.0238    -1.6325 F
75 F75    -2.2687    -5.6153     0.0907 F
76 F76    -3.2197    -4.7863    -1.6783 F
@<TRIPOS>BOND
1 1 7 Ar
2 1 9 2
3 1 30 1
4 2 12 Ar
5 2 14 Ar
6 2 36 1
7 3 17 2
8 3 19 Ar
9 3 24 1
10 4 5 Ar
11 4 8 Ar
12 4 22 Ar
13 5 6 Ar
14 5 70 1
15 6 7 Ar
16 6 64 1
17 7 8 Ar
18 8 44 1
19 9 10 Ar
20 9 13 1
21 10 11 2
22 10 42 1
23 11 12 Ar
24 11 43 1
25 12 13 1
26 13 44 1
27 14 15 Ar
28 14 18 1
29 15 16 2
30 15 63 1
31 16 17 Ar
32 16 62 1
33 17 18 1
34 18 44 1
35 19 20 Ar
36 19 23 Ar
37 20 21 Ar
38 20 68 1
39 21 22 Ar
40 21 69 1
41 22 23 Ar
42 23 44 1
43 24 25 Ar
44 24 29 Ar
45 25 26 Ar
46 25 52 1
47 26 27 Ar
48 26 53 1
49 27 28 Ar
50 27 54 1
51 28 29 Ar
52 28 55 1
53 29 56 1
54 30 31 Ar
55 30 35 Ar
56 31 32 Ar
57 31 51 1
58 32 33 Ar
59 32 50 1
60 33 34 Ar
61 33 47 1
62 34 35 Ar
63 34 48 1
64 35 49 1
65 36 37 Ar
66 36 41 Ar
67 37 38 Ar
68 37 61 1
69 38 39 Ar
70 38 60 1
71 39 40 Ar
72 39 59 1
73 40 41 Ar
74 40 57 1
75 41 58 1
76 44 45 1
77 44 46 1
78 64 65 1
79 64 66 1
80 64 67 1
81 69 71 1
82 69 72 1
83 69 73 1
84 70 74 1
85 70 75 1
86 70 76 1
