# F20P
# Created by GaussView 6.0.16
#

#
#

@<TRIPOS>MOLECULE
Molecule Name
70 80
SMALL
NO_CHARGES


@<TRIPOS>ATOM
1 C1     3.3139    -0.4739    -0.0228 C
2 C2    -0.4163     2.6994    -0.0138 C
3 C3    -3.3513    -1.2228     0.0112 C
4 C4     0.9338    -3.1215    -0.0310 C
5 C5     2.1072    -3.9077    -0.0485 C
6 C6     3.1866    -3.0357    -0.0431 C
7 C7     2.6706    -1.7135    -0.0240 C
8 N8     1.2981    -1.7985    -0.0167 N
9 C9     2.5719     0.7010    -0.0150 C
10 C10     3.1176     2.0210    -0.0119 C
11 C11     2.0850     2.9105    -0.0225 C
12 C12     0.8670     2.1659    -0.0184 C
13 N13     1.1668     0.8086    -0.0140 N
14 C14    -1.5530     1.8967    -0.0044 C
15 C15    -2.9039     2.3528     0.0134 C
16 C16    -3.7138     1.2549     0.0144 C
17 C17    -2.8903     0.0899     0.0071 C
18 N18    -1.5447     0.5067    -0.0082 N
19 C19    -2.4518    -2.2879    -0.0100 C
20 C20    -2.6565    -3.6982    -0.0100 C
21 C21    -1.4160    -4.3136    -0.0299 C
22 C22    -0.4549    -3.2807    -0.0366 C
23 N23    -1.0956    -2.0630    -0.0266 N
24 C24    -4.8081    -1.5004     0.0431 C
25 C25    -5.4441    -2.1657    -1.0099 C
26 C26    -6.8052    -2.4507    -0.9869 C
27 C27    -7.5708    -2.0602     0.1074 C
28 C28    -6.9688    -1.3937     1.1704 C
29 C29    -5.6041    -1.1289     1.1315 C
30 C30     4.7958    -0.4284    -0.0310 C
31 C31     5.5434    -0.9694     1.0204 C
32 C32     6.9340    -0.9574     1.0196 C
33 C33     7.6156    -0.3878    -0.0514 C
34 C34     6.9020     0.1598    -1.1131 C
35 C35     5.5118     0.1277    -1.0962 C
36 C36    -0.5801     4.1762    -0.0089 C
37 C37    -0.1757     4.9511     1.0825 C
38 C38    -0.3163     6.3347     1.0974 C
39 C39    -0.8902     6.9786     0.0053 C
40 C40    -1.3103     6.2357    -1.0938 C
41 C41    -1.1469     4.8544    -1.0920 C
42 H42     4.2326    -3.3036    -0.0596 H
43 H43     4.1744     2.2421     0.0004 H
44 H44     2.1439     3.9885    -0.0378 H
45 H45    -3.2016     3.3904     0.0285 H
46 H46    -4.7935     1.2372     0.0116 H
47 H47    -3.6228    -4.1814     0.0063 H
48 P48    -0.0543    -0.5679    -0.0159 P
49 F49    -0.0509    -0.5425    -1.6570 F
50 F50    -0.0511    -0.5563     1.6252 F
51 F51     8.9502    -0.3667    -0.0607 F
52 F52     7.5552     0.7005    -2.1477 F
53 F53     4.8598     0.6529    -2.1426 F
54 F54     7.6174    -1.4793     2.0440 F
55 F55     4.9214    -1.5203     2.0719 F
56 F56    -4.7407    -2.5478    -2.0844 F
57 F57    -7.3817    -3.0869    -2.0128 F
58 F58    -8.8790    -2.3239     0.1378 F
59 F59    -7.7018    -1.0215     2.2259 F
60 F60    -5.0571    -0.4959     2.1784 F
61 F61    -1.8568     6.8529    -2.1476 F
62 F62    -1.5582     4.1721    -2.1696 F
63 F63    -1.0365     8.3058     0.0117 F
64 F64     0.0856     7.0466     2.1566 F
65 F65     0.3733     4.3630     2.1544 F
66 H66    -1.1992    -5.3715    -0.0390 H
67 C67     2.1576    -5.3923    -0.0166 C
68 F68     1.8982    -5.8888     1.2163 F
69 F69     1.2376    -5.9413    -0.8492 F
70 F70     3.3703    -5.8535    -0.3845 F
@<TRIPOS>BOND
1 1 7 Ar
2 1 9 Ar
3 1 30 1
4 2 12 Ar
5 2 14 Ar
6 2 36 1
7 3 17 Ar
8 3 19 Ar
9 3 24 1
10 4 5 Ar
11 4 8 Ar
12 4 22 Ar
13 5 6 Ar
14 5 67 1
15 6 7 Ar
16 6 42 1
17 7 8 Ar
18 8 48 1
19 9 10 Ar
20 9 13 1
21 10 11 2
22 10 43 1
23 11 12 Ar
24 11 44 1
25 12 13 1
26 13 48 1
27 14 15 Ar
28 14 18 1
29 15 16 2
30 15 45 1
31 16 17 Ar
32 16 46 1
33 17 18 1
34 18 48 1
35 19 20 Ar
36 19 23 Ar
37 20 21 2
38 20 47 1
39 21 22 Ar
40 21 66 1
41 22 23 Ar
42 23 48 1
43 24 25 Ar
44 24 29 Ar
45 25 26 Ar
46 25 56 1
47 26 27 Ar
48 26 57 1
49 27 28 Ar
50 27 58 1
51 28 29 Ar
52 28 59 1
53 29 60 1
54 30 31 Ar
55 30 35 Ar
56 31 32 Ar
57 31 55 1
58 32 33 Ar
59 32 54 1
60 33 34 Ar
61 33 51 1
62 34 35 Ar
63 34 52 1
64 35 53 1
65 36 37 Ar
66 36 41 Ar
67 37 38 Ar
68 37 65 1
69 38 39 Ar
70 38 64 1
71 39 40 Ar
72 39 63 1
73 40 41 Ar
74 40 61 1
75 41 62 1
76 48 49 1
77 48 50 1
78 67 68 1
79 67 69 1
80 67 70 1
